/*---------------------------------------------------------------------------*\
| =========                 |                                                 |
| \\      /  F ield         | OpenFOAM: The Open Source CFD Toolbox           |
|  \\    /   O peration     | Version:  2.0.x                                 |
|   \\  /    A nd           | Web:      www.OpenFOAM.org                      |
|    \\/     M anipulation  |                                                 |
\*---------------------------------------------------------------------------*/
Build  : 2.0.x-055701e35b4c
Exec   : scalarFluxFoam
Date   : Oct 13 2011
Time   : 11:18:46
Host   : aris
PID    : 5285
Case   : /home/dcombest/OpenFOAM/dcombest-2.0.x/run/scalarFluxFoam/laminar
nProcs : 1
sigFpe : Enabling floating point exception trapping (FOAM_SIGFPE).
fileModificationChecking : Monitoring run-time modified files using timeStampMaster
allowSystemOperations : Disallowing user-supplied system call operations

// * * * * * * * * * * * * * * * * * * * * * * * * * * * * * * * * * * * * * //
Create time

Create mesh for time = 0

Reading field T

Reading field U

Reading/calculating face flux field phi

Selecting RAS scalar flux model laminarFlux

SIMPLE: no convergence criteria found. Calculations will run for 0.1 steps.


Calculating scalar transport

Courant Number mean: 0.447747 max: 1.94843
Time = 0.0001

DILUPBiCG:  Solving for T, Initial residual = 1, Final residual = 9.34073e-07, No Iterations 12
Time = 0.0002

DILUPBiCG:  Solving for T, Initial residual = 0.178284, Final residual = 9.67249e-07, No Iterations 10
Time = 0.0003

DILUPBiCG:  Solving for T, Initial residual = 0.0899919, Final residual = 7.55815e-07, No Iterations 10
Time = 0.0004

DILUPBiCG:  Solving for T, Initial residual = 0.060852, Final residual = 2.59135e-07, No Iterations 11
Time = 0.0005

DILUPBiCG:  Solving for T, Initial residual = 0.0469516, Final residual = 6.17576e-07, No Iterations 10
Time = 0.0006

DILUPBiCG:  Solving for T, Initial residual = 0.0387803, Final residual = 5.70926e-07, No Iterations 10
Time = 0.0007

DILUPBiCG:  Solving for T, Initial residual = 0.0332738, Final residual = 5.10574e-07, No Iterations 10
Time = 0.0008

DILUPBiCG:  Solving for T, Initial residual = 0.0291368, Final residual = 4.60911e-07, No Iterations 10
Time = 0.0009

DILUPBiCG:  Solving for T, Initial residual = 0.0259072, Final residual = 7.97821e-07, No Iterations 10
Time = 0.001

DILUPBiCG:  Solving for T, Initial residual = 0.0233039, Final residual = 2.31828e-07, No Iterations 11
Time = 0.0011

DILUPBiCG:  Solving for T, Initial residual = 0.0211517, Final residual = 7.8768e-07, No Iterations 10
Time = 0.0012

DILUPBiCG:  Solving for T, Initial residual = 0.0193361, Final residual = 5.12377e-07, No Iterations 10
Time = 0.0013

DILUPBiCG:  Solving for T, Initial residual = 0.0177813, Final residual = 9.39632e-07, No Iterations 9
Time = 0.0014

DILUPBiCG:  Solving for T, Initial residual = 0.0164338, Final residual = 9.89344e-07, No Iterations 9
Time = 0.0015

DILUPBiCG:  Solving for T, Initial residual = 0.0152548, Final residual = 8.82859e-07, No Iterations 9
Time = 0.0016

DILUPBiCG:  Solving for T, Initial residual = 0.0142152, Final residual = 6.73467e-07, No Iterations 10
Time = 0.0017

DILUPBiCG:  Solving for T, Initial residual = 0.0132926, Final residual = 1.13024e-07, No Iterations 11
Time = 0.0018

DILUPBiCG:  Solving for T, Initial residual = 0.0124697, Final residual = 9.688e-07, No Iterations 9
Time = 0.0019

DILUPBiCG:  Solving for T, Initial residual = 0.0117326, Final residual = 3.54306e-07, No Iterations 10
Time = 0.002

DILUPBiCG:  Solving for T, Initial residual = 0.0110698, Final residual = 3.40814e-07, No Iterations 10
Time = 0.0021

DILUPBiCG:  Solving for T, Initial residual = 0.0104721, Final residual = 3.40588e-07, No Iterations 10
Time = 0.0022

DILUPBiCG:  Solving for T, Initial residual = 0.00993162, Final residual = 3.07028e-07, No Iterations 10
Time = 0.0023

DILUPBiCG:  Solving for T, Initial residual = 0.00944145, Final residual = 2.66194e-07, No Iterations 10
Time = 0.0024

DILUPBiCG:  Solving for T, Initial residual = 0.00899604, Final residual = 9.50444e-07, No Iterations 9
Time = 0.0025

DILUPBiCG:  Solving for T, Initial residual = 0.0085902, Final residual = 9.20704e-07, No Iterations 9
Time = 0.0026

DILUPBiCG:  Solving for T, Initial residual = 0.00821974, Final residual = 9.23884e-07, No Iterations 9
Time = 0.0027

DILUPBiCG:  Solving for T, Initial residual = 0.00788071, Final residual = 9.76072e-07, No Iterations 9
Time = 0.0028

DILUPBiCG:  Solving for T, Initial residual = 0.0075699, Final residual = 1.58873e-07, No Iterations 10
Time = 0.0029

DILUPBiCG:  Solving for T, Initial residual = 0.00728422, Final residual = 1.54157e-07, No Iterations 10
Time = 0.003

DILUPBiCG:  Solving for T, Initial residual = 0.00702119, Final residual = 1.53148e-07, No Iterations 10
Time = 0.0031

DILUPBiCG:  Solving for T, Initial residual = 0.00677846, Final residual = 1.55728e-07, No Iterations 10
Time = 0.0032

DILUPBiCG:  Solving for T, Initial residual = 0.006554, Final residual = 1.67933e-07, No Iterations 10
Time = 0.0033

DILUPBiCG:  Solving for T, Initial residual = 0.00634607, Final residual = 3.66994e-07, No Iterations 8
Time = 0.0034

DILUPBiCG:  Solving for T, Initial residual = 0.00615301, Final residual = 5.12549e-07, No Iterations 8
Time = 0.0035

DILUPBiCG:  Solving for T, Initial residual = 0.00597342, Final residual = 5.90106e-07, No Iterations 8
Time = 0.0036

DILUPBiCG:  Solving for T, Initial residual = 0.00580604, Final residual = 6.17359e-07, No Iterations 8
Time = 0.0037

DILUPBiCG:  Solving for T, Initial residual = 0.00564975, Final residual = 6.22e-07, No Iterations 8
Time = 0.0038

DILUPBiCG:  Solving for T, Initial residual = 0.00550354, Final residual = 6.10304e-07, No Iterations 8
Time = 0.0039

DILUPBiCG:  Solving for T, Initial residual = 0.00536654, Final residual = 5.97527e-07, No Iterations 8
Time = 0.004

DILUPBiCG:  Solving for T, Initial residual = 0.00523796, Final residual = 5.6221e-07, No Iterations 8
Time = 0.0041

DILUPBiCG:  Solving for T, Initial residual = 0.00511706, Final residual = 5.41132e-07, No Iterations 8
Time = 0.0042

DILUPBiCG:  Solving for T, Initial residual = 0.00500324, Final residual = 5.01231e-07, No Iterations 8
Time = 0.0043

DILUPBiCG:  Solving for T, Initial residual = 0.0048959, Final residual = 4.88626e-07, No Iterations 8
Time = 0.0044

DILUPBiCG:  Solving for T, Initial residual = 0.00479453, Final residual = 4.74827e-07, No Iterations 8
Time = 0.0045

DILUPBiCG:  Solving for T, Initial residual = 0.00469866, Final residual = 4.50621e-07, No Iterations 8
Time = 0.0046

DILUPBiCG:  Solving for T, Initial residual = 0.00460787, Final residual = 4.35452e-07, No Iterations 8
Time = 0.0047

DILUPBiCG:  Solving for T, Initial residual = 0.00452178, Final residual = 4.03077e-07, No Iterations 8
Time = 0.0048

DILUPBiCG:  Solving for T, Initial residual = 0.00444006, Final residual = 3.78565e-07, No Iterations 8
Time = 0.0049

DILUPBiCG:  Solving for T, Initial residual = 0.00436237, Final residual = 3.53667e-07, No Iterations 8
Time = 0.005

DILUPBiCG:  Solving for T, Initial residual = 0.00428845, Final residual = 3.52544e-07, No Iterations 8
Time = 0.0051

DILUPBiCG:  Solving for T, Initial residual = 0.00421804, Final residual = 3.2169e-07, No Iterations 8
Time = 0.0052

DILUPBiCG:  Solving for T, Initial residual = 0.0041509, Final residual = 3.12275e-07, No Iterations 8
Time = 0.0053

DILUPBiCG:  Solving for T, Initial residual = 0.00408681, Final residual = 2.98042e-07, No Iterations 8
Time = 0.0054

DILUPBiCG:  Solving for T, Initial residual = 0.00402559, Final residual = 2.88389e-07, No Iterations 8
Time = 0.0055

DILUPBiCG:  Solving for T, Initial residual = 0.00396705, Final residual = 2.79573e-07, No Iterations 8
Time = 0.0056

DILUPBiCG:  Solving for T, Initial residual = 0.00391102, Final residual = 2.70724e-07, No Iterations 8
Time = 0.0057

DILUPBiCG:  Solving for T, Initial residual = 0.00385736, Final residual = 2.63043e-07, No Iterations 8
Time = 0.0058

DILUPBiCG:  Solving for T, Initial residual = 0.00380593, Final residual = 2.55559e-07, No Iterations 8
Time = 0.0059

DILUPBiCG:  Solving for T, Initial residual = 0.00375659, Final residual = 2.4918e-07, No Iterations 8
Time = 0.006

DILUPBiCG:  Solving for T, Initial residual = 0.00370923, Final residual = 2.4367e-07, No Iterations 8
Time = 0.0061

DILUPBiCG:  Solving for T, Initial residual = 0.00366373, Final residual = 2.39059e-07, No Iterations 8
Time = 0.0062

DILUPBiCG:  Solving for T, Initial residual = 0.00362, Final residual = 2.35332e-07, No Iterations 8
Time = 0.0063

DILUPBiCG:  Solving for T, Initial residual = 0.00357794, Final residual = 2.3159e-07, No Iterations 8
Time = 0.0064

DILUPBiCG:  Solving for T, Initial residual = 0.00353745, Final residual = 2.2995e-07, No Iterations 8
Time = 0.0065

DILUPBiCG:  Solving for T, Initial residual = 0.00349847, Final residual = 2.28402e-07, No Iterations 8
Time = 0.0066

DILUPBiCG:  Solving for T, Initial residual = 0.00346091, Final residual = 9.91424e-07, No Iterations 7
Time = 0.0067

DILUPBiCG:  Solving for T, Initial residual = 0.00342469, Final residual = 2.84035e-07, No Iterations 8
Time = 0.0068

DILUPBiCG:  Solving for T, Initial residual = 0.00338976, Final residual = 9.79334e-07, No Iterations 7
Time = 0.0069

DILUPBiCG:  Solving for T, Initial residual = 0.00335606, Final residual = 3.48158e-07, No Iterations 8
Time = 0.007

DILUPBiCG:  Solving for T, Initial residual = 0.00332352, Final residual = 9.66456e-07, No Iterations 7
Time = 0.0071

DILUPBiCG:  Solving for T, Initial residual = 0.00329209, Final residual = 5.92863e-07, No Iterations 8
Time = 0.0072

DILUPBiCG:  Solving for T, Initial residual = 0.00326171, Final residual = 9.4836e-07, No Iterations 7
Time = 0.0073

DILUPBiCG:  Solving for T, Initial residual = 0.00323234, Final residual = 2.25809e-07, No Iterations 9
Time = 0.0074

DILUPBiCG:  Solving for T, Initial residual = 0.00320393, Final residual = 9.74158e-07, No Iterations 7
Time = 0.0075

DILUPBiCG:  Solving for T, Initial residual = 0.00317645, Final residual = 4.82762e-07, No Iterations 8
Time = 0.0076

DILUPBiCG:  Solving for T, Initial residual = 0.00314986, Final residual = 4.40112e-07, No Iterations 8
Time = 0.0077

DILUPBiCG:  Solving for T, Initial residual = 0.00312412, Final residual = 3.2866e-07, No Iterations 8
Time = 0.0078

DILUPBiCG:  Solving for T, Initial residual = 0.00309919, Final residual = 2.70367e-07, No Iterations 8
Time = 0.0079

DILUPBiCG:  Solving for T, Initial residual = 0.00307504, Final residual = 2.25893e-07, No Iterations 8
Time = 0.008

DILUPBiCG:  Solving for T, Initial residual = 0.00305162, Final residual = 1.93455e-07, No Iterations 8
Time = 0.0081

DILUPBiCG:  Solving for T, Initial residual = 0.00302891, Final residual = 1.72145e-07, No Iterations 8
Time = 0.0082

DILUPBiCG:  Solving for T, Initial residual = 0.00300691, Final residual = 1.55467e-07, No Iterations 8
Time = 0.0083

DILUPBiCG:  Solving for T, Initial residual = 0.00298557, Final residual = 1.42042e-07, No Iterations 8
Time = 0.0084

DILUPBiCG:  Solving for T, Initial residual = 0.00296487, Final residual = 1.31412e-07, No Iterations 8
Time = 0.0085

DILUPBiCG:  Solving for T, Initial residual = 0.00294478, Final residual = 1.23097e-07, No Iterations 8
Time = 0.0086

DILUPBiCG:  Solving for T, Initial residual = 0.00292526, Final residual = 1.15671e-07, No Iterations 8
Time = 0.0087

DILUPBiCG:  Solving for T, Initial residual = 0.00290632, Final residual = 1.09835e-07, No Iterations 8
Time = 0.0088

DILUPBiCG:  Solving for T, Initial residual = 0.00288793, Final residual = 1.04813e-07, No Iterations 8
Time = 0.0089

DILUPBiCG:  Solving for T, Initial residual = 0.00287008, Final residual = 1.00225e-07, No Iterations 8
Time = 0.009

DILUPBiCG:  Solving for T, Initial residual = 0.00285273, Final residual = 9.62257e-08, No Iterations 8
Time = 0.0091

DILUPBiCG:  Solving for T, Initial residual = 0.00283586, Final residual = 9.28825e-08, No Iterations 8
Time = 0.0092

DILUPBiCG:  Solving for T, Initial residual = 0.00281948, Final residual = 8.96466e-08, No Iterations 8
Time = 0.0093

DILUPBiCG:  Solving for T, Initial residual = 0.00280356, Final residual = 8.69754e-08, No Iterations 8
Time = 0.0094

DILUPBiCG:  Solving for T, Initial residual = 0.00278808, Final residual = 8.41666e-08, No Iterations 8
Time = 0.0095

DILUPBiCG:  Solving for T, Initial residual = 0.00277302, Final residual = 8.22568e-08, No Iterations 8
Time = 0.0096

DILUPBiCG:  Solving for T, Initial residual = 0.00275839, Final residual = 8.02294e-08, No Iterations 8
Time = 0.0097

DILUPBiCG:  Solving for T, Initial residual = 0.00274417, Final residual = 7.81158e-08, No Iterations 8
Time = 0.0098

DILUPBiCG:  Solving for T, Initial residual = 0.00273032, Final residual = 9.93847e-07, No Iterations 6
Time = 0.0099

DILUPBiCG:  Solving for T, Initial residual = 0.00271685, Final residual = 9.81548e-07, No Iterations 6
Time = 0.01

DILUPBiCG:  Solving for T, Initial residual = 0.00270376, Final residual = 9.64432e-07, No Iterations 6
Time = 0.0101

DILUPBiCG:  Solving for T, Initial residual = 0.00269102, Final residual = 9.47838e-07, No Iterations 6
Time = 0.0102

DILUPBiCG:  Solving for T, Initial residual = 0.00267861, Final residual = 9.31658e-07, No Iterations 6
Time = 0.0103

DILUPBiCG:  Solving for T, Initial residual = 0.00266655, Final residual = 9.1575e-07, No Iterations 6
Time = 0.0104

DILUPBiCG:  Solving for T, Initial residual = 0.00265482, Final residual = 9.01139e-07, No Iterations 6
Time = 0.0105

DILUPBiCG:  Solving for T, Initial residual = 0.00264339, Final residual = 8.86649e-07, No Iterations 6
Time = 0.0106

DILUPBiCG:  Solving for T, Initial residual = 0.00263227, Final residual = 8.72276e-07, No Iterations 6
Time = 0.0107

DILUPBiCG:  Solving for T, Initial residual = 0.00262146, Final residual = 8.59236e-07, No Iterations 6
Time = 0.0108

DILUPBiCG:  Solving for T, Initial residual = 0.00261092, Final residual = 8.45889e-07, No Iterations 6
Time = 0.0109

DILUPBiCG:  Solving for T, Initial residual = 0.00260067, Final residual = 8.33693e-07, No Iterations 6
Time = 0.011

DILUPBiCG:  Solving for T, Initial residual = 0.0025907, Final residual = 8.20951e-07, No Iterations 6
Time = 0.0111

DILUPBiCG:  Solving for T, Initial residual = 0.002581, Final residual = 8.08925e-07, No Iterations 6
Time = 0.0112

DILUPBiCG:  Solving for T, Initial residual = 0.00257154, Final residual = 7.97623e-07, No Iterations 6
Time = 0.0113

DILUPBiCG:  Solving for T, Initial residual = 0.00256236, Final residual = 7.86313e-07, No Iterations 6
Time = 0.0114

DILUPBiCG:  Solving for T, Initial residual = 0.0025534, Final residual = 7.75474e-07, No Iterations 6
Time = 0.0115

DILUPBiCG:  Solving for T, Initial residual = 0.00254469, Final residual = 7.64912e-07, No Iterations 6
Time = 0.0116

DILUPBiCG:  Solving for T, Initial residual = 0.00253623, Final residual = 7.54769e-07, No Iterations 6
Time = 0.0117

DILUPBiCG:  Solving for T, Initial residual = 0.00252798, Final residual = 7.4475e-07, No Iterations 6
Time = 0.0118

DILUPBiCG:  Solving for T, Initial residual = 0.00251996, Final residual = 7.34923e-07, No Iterations 6
Time = 0.0119

DILUPBiCG:  Solving for T, Initial residual = 0.00251216, Final residual = 7.25818e-07, No Iterations 6
Time = 0.012

DILUPBiCG:  Solving for T, Initial residual = 0.00250456, Final residual = 7.16612e-07, No Iterations 6
Time = 0.0121

DILUPBiCG:  Solving for T, Initial residual = 0.00249719, Final residual = 7.07988e-07, No Iterations 6
Time = 0.0122

DILUPBiCG:  Solving for T, Initial residual = 0.00249, Final residual = 6.99389e-07, No Iterations 6
Time = 0.0123

DILUPBiCG:  Solving for T, Initial residual = 0.00248302, Final residual = 6.91047e-07, No Iterations 6
Time = 0.0124

DILUPBiCG:  Solving for T, Initial residual = 0.00247623, Final residual = 6.82675e-07, No Iterations 6
Time = 0.0125

DILUPBiCG:  Solving for T, Initial residual = 0.00246962, Final residual = 6.74889e-07, No Iterations 6
Time = 0.0126

DILUPBiCG:  Solving for T, Initial residual = 0.00246322, Final residual = 6.6675e-07, No Iterations 6
Time = 0.0127

DILUPBiCG:  Solving for T, Initial residual = 0.00245698, Final residual = 6.59123e-07, No Iterations 6
Time = 0.0128

DILUPBiCG:  Solving for T, Initial residual = 0.00245093, Final residual = 6.51148e-07, No Iterations 6
Time = 0.0129

DILUPBiCG:  Solving for T, Initial residual = 0.00244505, Final residual = 6.44001e-07, No Iterations 6
Time = 0.013

DILUPBiCG:  Solving for T, Initial residual = 0.00243933, Final residual = 6.36385e-07, No Iterations 6
Time = 0.0131

DILUPBiCG:  Solving for T, Initial residual = 0.00243379, Final residual = 6.29199e-07, No Iterations 6
Time = 0.0132

DILUPBiCG:  Solving for T, Initial residual = 0.00242841, Final residual = 6.22119e-07, No Iterations 6
Time = 0.0133

DILUPBiCG:  Solving for T, Initial residual = 0.00242319, Final residual = 6.15149e-07, No Iterations 6
Time = 0.0134

DILUPBiCG:  Solving for T, Initial residual = 0.00241812, Final residual = 6.08019e-07, No Iterations 6
Time = 0.0135

DILUPBiCG:  Solving for T, Initial residual = 0.00241321, Final residual = 6.01459e-07, No Iterations 6
Time = 0.0136

DILUPBiCG:  Solving for T, Initial residual = 0.00240845, Final residual = 5.94794e-07, No Iterations 6
Time = 0.0137

DILUPBiCG:  Solving for T, Initial residual = 0.00240383, Final residual = 5.88487e-07, No Iterations 6
Time = 0.0138

DILUPBiCG:  Solving for T, Initial residual = 0.00239937, Final residual = 5.81973e-07, No Iterations 6
Time = 0.0139

DILUPBiCG:  Solving for T, Initial residual = 0.00239504, Final residual = 5.76146e-07, No Iterations 6
Time = 0.014

DILUPBiCG:  Solving for T, Initial residual = 0.00239085, Final residual = 5.70351e-07, No Iterations 6
Time = 0.0141

DILUPBiCG:  Solving for T, Initial residual = 0.0023868, Final residual = 5.6417e-07, No Iterations 6
Time = 0.0142

DILUPBiCG:  Solving for T, Initial residual = 0.00238289, Final residual = 5.58421e-07, No Iterations 6
Time = 0.0143

DILUPBiCG:  Solving for T, Initial residual = 0.00237911, Final residual = 5.5297e-07, No Iterations 6
Time = 0.0144

DILUPBiCG:  Solving for T, Initial residual = 0.00237546, Final residual = 5.47438e-07, No Iterations 6
Time = 0.0145

DILUPBiCG:  Solving for T, Initial residual = 0.00237194, Final residual = 5.41732e-07, No Iterations 6
Time = 0.0146

DILUPBiCG:  Solving for T, Initial residual = 0.00236854, Final residual = 5.37072e-07, No Iterations 6
Time = 0.0147

DILUPBiCG:  Solving for T, Initial residual = 0.00236527, Final residual = 5.31718e-07, No Iterations 6
Time = 0.0148

DILUPBiCG:  Solving for T, Initial residual = 0.00236212, Final residual = 5.26696e-07, No Iterations 6
Time = 0.0149

DILUPBiCG:  Solving for T, Initial residual = 0.00235909, Final residual = 5.2222e-07, No Iterations 6
Time = 0.015

DILUPBiCG:  Solving for T, Initial residual = 0.00235618, Final residual = 5.1767e-07, No Iterations 6
Time = 0.0151

DILUPBiCG:  Solving for T, Initial residual = 0.00235338, Final residual = 5.13067e-07, No Iterations 6
Time = 0.0152

DILUPBiCG:  Solving for T, Initial residual = 0.0023507, Final residual = 5.0869e-07, No Iterations 6
Time = 0.0153

DILUPBiCG:  Solving for T, Initial residual = 0.00234813, Final residual = 5.04388e-07, No Iterations 6
Time = 0.0154

DILUPBiCG:  Solving for T, Initial residual = 0.00234568, Final residual = 5.00364e-07, No Iterations 6
Time = 0.0155

DILUPBiCG:  Solving for T, Initial residual = 0.00234333, Final residual = 4.96871e-07, No Iterations 6
Time = 0.0156

DILUPBiCG:  Solving for T, Initial residual = 0.00234109, Final residual = 4.92925e-07, No Iterations 6
Time = 0.0157

DILUPBiCG:  Solving for T, Initial residual = 0.00233896, Final residual = 4.89463e-07, No Iterations 6
Time = 0.0158

DILUPBiCG:  Solving for T, Initial residual = 0.00233693, Final residual = 4.86319e-07, No Iterations 6
Time = 0.0159

DILUPBiCG:  Solving for T, Initial residual = 0.00233501, Final residual = 4.82655e-07, No Iterations 6
Time = 0.016

DILUPBiCG:  Solving for T, Initial residual = 0.00233319, Final residual = 4.79488e-07, No Iterations 6
Time = 0.0161

DILUPBiCG:  Solving for T, Initial residual = 0.00233148, Final residual = 4.76835e-07, No Iterations 6
Time = 0.0162

DILUPBiCG:  Solving for T, Initial residual = 0.00232986, Final residual = 4.74084e-07, No Iterations 6
Time = 0.0163

DILUPBiCG:  Solving for T, Initial residual = 0.00232834, Final residual = 4.71461e-07, No Iterations 6
Time = 0.0164

DILUPBiCG:  Solving for T, Initial residual = 0.00232691, Final residual = 4.68743e-07, No Iterations 6
Time = 0.0165

DILUPBiCG:  Solving for T, Initial residual = 0.00232559, Final residual = 4.67233e-07, No Iterations 6
Time = 0.0166

DILUPBiCG:  Solving for T, Initial residual = 0.00232435, Final residual = 4.6526e-07, No Iterations 6
Time = 0.0167

DILUPBiCG:  Solving for T, Initial residual = 0.00232322, Final residual = 4.63114e-07, No Iterations 6
Time = 0.0168

DILUPBiCG:  Solving for T, Initial residual = 0.00232218, Final residual = 4.61859e-07, No Iterations 6
Time = 0.0169

DILUPBiCG:  Solving for T, Initial residual = 0.00232123, Final residual = 4.61014e-07, No Iterations 6
Time = 0.017

DILUPBiCG:  Solving for T, Initial residual = 0.00232037, Final residual = 4.59624e-07, No Iterations 6
Time = 0.0171

DILUPBiCG:  Solving for T, Initial residual = 0.0023196, Final residual = 4.59156e-07, No Iterations 6
Time = 0.0172

DILUPBiCG:  Solving for T, Initial residual = 0.00231891, Final residual = 4.58919e-07, No Iterations 6
Time = 0.0173

DILUPBiCG:  Solving for T, Initial residual = 0.00231832, Final residual = 4.58748e-07, No Iterations 6
Time = 0.0174

DILUPBiCG:  Solving for T, Initial residual = 0.00231782, Final residual = 4.59258e-07, No Iterations 6
Time = 0.0175

DILUPBiCG:  Solving for T, Initial residual = 0.0023174, Final residual = 4.59783e-07, No Iterations 6
Time = 0.0176

DILUPBiCG:  Solving for T, Initial residual = 0.00231707, Final residual = 4.61207e-07, No Iterations 6
Time = 0.0177

DILUPBiCG:  Solving for T, Initial residual = 0.00231682, Final residual = 4.62802e-07, No Iterations 6
Time = 0.0178

DILUPBiCG:  Solving for T, Initial residual = 0.00231666, Final residual = 4.65026e-07, No Iterations 6
Time = 0.0179

DILUPBiCG:  Solving for T, Initial residual = 0.00231658, Final residual = 4.67669e-07, No Iterations 6
Time = 0.018

DILUPBiCG:  Solving for T, Initial residual = 0.00231659, Final residual = 4.71462e-07, No Iterations 6
Time = 0.0181

DILUPBiCG:  Solving for T, Initial residual = 0.00231667, Final residual = 4.75791e-07, No Iterations 6
Time = 0.0182

DILUPBiCG:  Solving for T, Initial residual = 0.00231684, Final residual = 4.81001e-07, No Iterations 6
Time = 0.0183

DILUPBiCG:  Solving for T, Initial residual = 0.00231709, Final residual = 4.87538e-07, No Iterations 6
Time = 0.0184

DILUPBiCG:  Solving for T, Initial residual = 0.00231741, Final residual = 4.96038e-07, No Iterations 6
Time = 0.0185

DILUPBiCG:  Solving for T, Initial residual = 0.00231783, Final residual = 5.0632e-07, No Iterations 6
Time = 0.0186

DILUPBiCG:  Solving for T, Initial residual = 0.00231832, Final residual = 5.19107e-07, No Iterations 6
Time = 0.0187

DILUPBiCG:  Solving for T, Initial residual = 0.00231888, Final residual = 5.34961e-07, No Iterations 6
Time = 0.0188

DILUPBiCG:  Solving for T, Initial residual = 0.00231953, Final residual = 5.54404e-07, No Iterations 6
Time = 0.0189

DILUPBiCG:  Solving for T, Initial residual = 0.00232025, Final residual = 5.79376e-07, No Iterations 6
Time = 0.019

DILUPBiCG:  Solving for T, Initial residual = 0.00232105, Final residual = 6.11258e-07, No Iterations 6
Time = 0.0191

DILUPBiCG:  Solving for T, Initial residual = 0.00232193, Final residual = 6.51906e-07, No Iterations 6
Time = 0.0192

DILUPBiCG:  Solving for T, Initial residual = 0.00232288, Final residual = 7.05225e-07, No Iterations 6
Time = 0.0193

DILUPBiCG:  Solving for T, Initial residual = 0.00232391, Final residual = 7.76976e-07, No Iterations 6
Time = 0.0194

DILUPBiCG:  Solving for T, Initial residual = 0.00232502, Final residual = 8.77462e-07, No Iterations 6
Time = 0.0195

DILUPBiCG:  Solving for T, Initial residual = 0.0023262, Final residual = 2.43285e-07, No Iterations 7
Time = 0.0196

DILUPBiCG:  Solving for T, Initial residual = 0.00232746, Final residual = 2.5893e-07, No Iterations 7
Time = 0.0197

DILUPBiCG:  Solving for T, Initial residual = 0.00232878, Final residual = 2.74034e-07, No Iterations 7
Time = 0.0198

DILUPBiCG:  Solving for T, Initial residual = 0.00233019, Final residual = 2.92517e-07, No Iterations 7
Time = 0.0199

DILUPBiCG:  Solving for T, Initial residual = 0.00233167, Final residual = 3.11198e-07, No Iterations 7
Time = 0.02

DILUPBiCG:  Solving for T, Initial residual = 0.00233321, Final residual = 3.34307e-07, No Iterations 7
Time = 0.0201

DILUPBiCG:  Solving for T, Initial residual = 0.00233484, Final residual = 3.54607e-07, No Iterations 7
Time = 0.0202

DILUPBiCG:  Solving for T, Initial residual = 0.00233654, Final residual = 3.82355e-07, No Iterations 7
Time = 0.0203

DILUPBiCG:  Solving for T, Initial residual = 0.0023383, Final residual = 4.10125e-07, No Iterations 7
Time = 0.0204

DILUPBiCG:  Solving for T, Initial residual = 0.00234015, Final residual = 4.43429e-07, No Iterations 7
Time = 0.0205

DILUPBiCG:  Solving for T, Initial residual = 0.00234207, Final residual = 4.85372e-07, No Iterations 7
Time = 0.0206

DILUPBiCG:  Solving for T, Initial residual = 0.00234405, Final residual = 5.24532e-07, No Iterations 7
Time = 0.0207

DILUPBiCG:  Solving for T, Initial residual = 0.00234612, Final residual = 5.65163e-07, No Iterations 7
Time = 0.0208

DILUPBiCG:  Solving for T, Initial residual = 0.00234824, Final residual = 6.27271e-07, No Iterations 7
Time = 0.0209

DILUPBiCG:  Solving for T, Initial residual = 0.00235044, Final residual = 7.03349e-07, No Iterations 7
Time = 0.021

DILUPBiCG:  Solving for T, Initial residual = 0.00235272, Final residual = 9.73087e-07, No Iterations 6
Time = 0.0211

DILUPBiCG:  Solving for T, Initial residual = 0.00235507, Final residual = 9.20258e-07, No Iterations 6
Time = 0.0212

DILUPBiCG:  Solving for T, Initial residual = 0.00235748, Final residual = 8.70403e-07, No Iterations 6
Time = 0.0213

DILUPBiCG:  Solving for T, Initial residual = 0.00235997, Final residual = 8.30467e-07, No Iterations 6
Time = 0.0214

DILUPBiCG:  Solving for T, Initial residual = 0.00236253, Final residual = 7.96551e-07, No Iterations 6
Time = 0.0215

DILUPBiCG:  Solving for T, Initial residual = 0.00236515, Final residual = 7.6727e-07, No Iterations 6
Time = 0.0216

DILUPBiCG:  Solving for T, Initial residual = 0.00236786, Final residual = 7.40683e-07, No Iterations 6
Time = 0.0217

DILUPBiCG:  Solving for T, Initial residual = 0.00237063, Final residual = 7.18804e-07, No Iterations 6
Time = 0.0218

DILUPBiCG:  Solving for T, Initial residual = 0.00237347, Final residual = 6.99367e-07, No Iterations 6
Time = 0.0219

DILUPBiCG:  Solving for T, Initial residual = 0.00237639, Final residual = 6.82211e-07, No Iterations 6
Time = 0.022

DILUPBiCG:  Solving for T, Initial residual = 0.00237938, Final residual = 6.66375e-07, No Iterations 6
Time = 0.0221

DILUPBiCG:  Solving for T, Initial residual = 0.00238242, Final residual = 9.99602e-07, No Iterations 5
Time = 0.0222

DILUPBiCG:  Solving for T, Initial residual = 0.00238556, Final residual = 9.94874e-07, No Iterations 5
Time = 0.0223

DILUPBiCG:  Solving for T, Initial residual = 0.00238876, Final residual = 9.92422e-07, No Iterations 5
Time = 0.0224

DILUPBiCG:  Solving for T, Initial residual = 0.00239202, Final residual = 9.90122e-07, No Iterations 5
Time = 0.0225

DILUPBiCG:  Solving for T, Initial residual = 0.00239537, Final residual = 9.90182e-07, No Iterations 5
Time = 0.0226

DILUPBiCG:  Solving for T, Initial residual = 0.00239879, Final residual = 9.90174e-07, No Iterations 5
Time = 0.0227

DILUPBiCG:  Solving for T, Initial residual = 0.00240225, Final residual = 9.90387e-07, No Iterations 5
Time = 0.0228

DILUPBiCG:  Solving for T, Initial residual = 0.00240582, Final residual = 9.91383e-07, No Iterations 5
Time = 0.0229

DILUPBiCG:  Solving for T, Initial residual = 0.00240945, Final residual = 9.93483e-07, No Iterations 5
Time = 0.023

DILUPBiCG:  Solving for T, Initial residual = 0.00241314, Final residual = 9.96691e-07, No Iterations 5
Time = 0.0231

DILUPBiCG:  Solving for T, Initial residual = 0.00241691, Final residual = 9.99928e-07, No Iterations 5
Time = 0.0232

DILUPBiCG:  Solving for T, Initial residual = 0.00242076, Final residual = 5.55678e-07, No Iterations 6
Time = 0.0233

DILUPBiCG:  Solving for T, Initial residual = 0.00242467, Final residual = 5.48665e-07, No Iterations 6
Time = 0.0234

DILUPBiCG:  Solving for T, Initial residual = 0.00242864, Final residual = 5.4231e-07, No Iterations 6
Time = 0.0235

DILUPBiCG:  Solving for T, Initial residual = 0.00243271, Final residual = 5.36211e-07, No Iterations 6
Time = 0.0236

DILUPBiCG:  Solving for T, Initial residual = 0.00243684, Final residual = 5.3023e-07, No Iterations 6
Time = 0.0237

DILUPBiCG:  Solving for T, Initial residual = 0.00244103, Final residual = 5.24487e-07, No Iterations 6
Time = 0.0238

DILUPBiCG:  Solving for T, Initial residual = 0.00244532, Final residual = 5.18891e-07, No Iterations 6
Time = 0.0239

DILUPBiCG:  Solving for T, Initial residual = 0.00244967, Final residual = 5.13468e-07, No Iterations 6
Time = 0.024

DILUPBiCG:  Solving for T, Initial residual = 0.00245409, Final residual = 5.08281e-07, No Iterations 6
Time = 0.0241

DILUPBiCG:  Solving for T, Initial residual = 0.00245857, Final residual = 5.03351e-07, No Iterations 6
Time = 0.0242

DILUPBiCG:  Solving for T, Initial residual = 0.00246315, Final residual = 4.98549e-07, No Iterations 6
Time = 0.0243

DILUPBiCG:  Solving for T, Initial residual = 0.00246779, Final residual = 4.9394e-07, No Iterations 6
Time = 0.0244

DILUPBiCG:  Solving for T, Initial residual = 0.00247249, Final residual = 4.89463e-07, No Iterations 6
Time = 0.0245

DILUPBiCG:  Solving for T, Initial residual = 0.00247728, Final residual = 4.8524e-07, No Iterations 6
Time = 0.0246

DILUPBiCG:  Solving for T, Initial residual = 0.00248215, Final residual = 4.81338e-07, No Iterations 6
Time = 0.0247

DILUPBiCG:  Solving for T, Initial residual = 0.00248708, Final residual = 4.77491e-07, No Iterations 6
Time = 0.0248

DILUPBiCG:  Solving for T, Initial residual = 0.00249208, Final residual = 4.73829e-07, No Iterations 6
Time = 0.0249

DILUPBiCG:  Solving for T, Initial residual = 0.00249717, Final residual = 4.70313e-07, No Iterations 6
Time = 0.025

DILUPBiCG:  Solving for T, Initial residual = 0.00250233, Final residual = 4.66904e-07, No Iterations 6
Time = 0.0251

DILUPBiCG:  Solving for T, Initial residual = 0.00250754, Final residual = 4.63609e-07, No Iterations 6
Time = 0.0252

DILUPBiCG:  Solving for T, Initial residual = 0.00251284, Final residual = 4.60526e-07, No Iterations 6
Time = 0.0253

DILUPBiCG:  Solving for T, Initial residual = 0.00251822, Final residual = 4.57612e-07, No Iterations 6
Time = 0.0254

DILUPBiCG:  Solving for T, Initial residual = 0.00252367, Final residual = 4.54843e-07, No Iterations 6
Time = 0.0255

DILUPBiCG:  Solving for T, Initial residual = 0.00252917, Final residual = 4.52247e-07, No Iterations 6
Time = 0.0256

DILUPBiCG:  Solving for T, Initial residual = 0.00253477, Final residual = 4.49734e-07, No Iterations 6
Time = 0.0257

DILUPBiCG:  Solving for T, Initial residual = 0.00254044, Final residual = 4.47409e-07, No Iterations 6
Time = 0.0258

DILUPBiCG:  Solving for T, Initial residual = 0.00254617, Final residual = 4.45211e-07, No Iterations 6
Time = 0.0259

DILUPBiCG:  Solving for T, Initial residual = 0.00255197, Final residual = 4.43142e-07, No Iterations 6
Time = 0.026

DILUPBiCG:  Solving for T, Initial residual = 0.00255785, Final residual = 4.41258e-07, No Iterations 6
Time = 0.0261

DILUPBiCG:  Solving for T, Initial residual = 0.00256381, Final residual = 4.39576e-07, No Iterations 6
Time = 0.0262

DILUPBiCG:  Solving for T, Initial residual = 0.00256982, Final residual = 4.38023e-07, No Iterations 6
Time = 0.0263

DILUPBiCG:  Solving for T, Initial residual = 0.0025759, Final residual = 4.36641e-07, No Iterations 6
Time = 0.0264

DILUPBiCG:  Solving for T, Initial residual = 0.00258206, Final residual = 4.35449e-07, No Iterations 6
Time = 0.0265

DILUPBiCG:  Solving for T, Initial residual = 0.00258829, Final residual = 4.34458e-07, No Iterations 6
Time = 0.0266

DILUPBiCG:  Solving for T, Initial residual = 0.00259458, Final residual = 4.33568e-07, No Iterations 6
Time = 0.0267

DILUPBiCG:  Solving for T, Initial residual = 0.00260093, Final residual = 4.32835e-07, No Iterations 6
Time = 0.0268

DILUPBiCG:  Solving for T, Initial residual = 0.00260735, Final residual = 4.32296e-07, No Iterations 6
Time = 0.0269

DILUPBiCG:  Solving for T, Initial residual = 0.00261385, Final residual = 4.31806e-07, No Iterations 6
Time = 0.027

DILUPBiCG:  Solving for T, Initial residual = 0.0026204, Final residual = 4.31582e-07, No Iterations 6
Time = 0.0271

DILUPBiCG:  Solving for T, Initial residual = 0.002627, Final residual = 4.31439e-07, No Iterations 6
Time = 0.0272

DILUPBiCG:  Solving for T, Initial residual = 0.00263367, Final residual = 4.31465e-07, No Iterations 6
Time = 0.0273

DILUPBiCG:  Solving for T, Initial residual = 0.00264041, Final residual = 4.31621e-07, No Iterations 6
Time = 0.0274

DILUPBiCG:  Solving for T, Initial residual = 0.00264719, Final residual = 4.31854e-07, No Iterations 6
Time = 0.0275

DILUPBiCG:  Solving for T, Initial residual = 0.00265403, Final residual = 4.32292e-07, No Iterations 6
Time = 0.0276

DILUPBiCG:  Solving for T, Initial residual = 0.00266092, Final residual = 4.32837e-07, No Iterations 6
Time = 0.0277

DILUPBiCG:  Solving for T, Initial residual = 0.00266787, Final residual = 4.33589e-07, No Iterations 6
Time = 0.0278

DILUPBiCG:  Solving for T, Initial residual = 0.00267487, Final residual = 4.34322e-07, No Iterations 6
Time = 0.0279

DILUPBiCG:  Solving for T, Initial residual = 0.00268191, Final residual = 4.35311e-07, No Iterations 6
Time = 0.028

DILUPBiCG:  Solving for T, Initial residual = 0.00268899, Final residual = 4.36496e-07, No Iterations 6
Time = 0.0281

DILUPBiCG:  Solving for T, Initial residual = 0.00269612, Final residual = 4.37795e-07, No Iterations 6
Time = 0.0282

DILUPBiCG:  Solving for T, Initial residual = 0.00270329, Final residual = 4.39243e-07, No Iterations 6
Time = 0.0283

DILUPBiCG:  Solving for T, Initial residual = 0.0027105, Final residual = 4.40827e-07, No Iterations 6
Time = 0.0284

DILUPBiCG:  Solving for T, Initial residual = 0.00271772, Final residual = 4.42585e-07, No Iterations 6
Time = 0.0285

DILUPBiCG:  Solving for T, Initial residual = 0.00272498, Final residual = 4.44586e-07, No Iterations 6
Time = 0.0286

DILUPBiCG:  Solving for T, Initial residual = 0.00273228, Final residual = 4.46717e-07, No Iterations 6
Time = 0.0287

DILUPBiCG:  Solving for T, Initial residual = 0.0027396, Final residual = 4.48967e-07, No Iterations 6
Time = 0.0288

DILUPBiCG:  Solving for T, Initial residual = 0.00274693, Final residual = 4.51278e-07, No Iterations 6
Time = 0.0289

DILUPBiCG:  Solving for T, Initial residual = 0.00275426, Final residual = 4.53996e-07, No Iterations 6
Time = 0.029

DILUPBiCG:  Solving for T, Initial residual = 0.00276163, Final residual = 4.56972e-07, No Iterations 6
Time = 0.0291

DILUPBiCG:  Solving for T, Initial residual = 0.002769, Final residual = 4.60132e-07, No Iterations 6
Time = 0.0292

DILUPBiCG:  Solving for T, Initial residual = 0.00277635, Final residual = 4.636e-07, No Iterations 6
Time = 0.0293

DILUPBiCG:  Solving for T, Initial residual = 0.0027837, Final residual = 4.67371e-07, No Iterations 6
Time = 0.0294

DILUPBiCG:  Solving for T, Initial residual = 0.00279106, Final residual = 4.71496e-07, No Iterations 6
Time = 0.0295

DILUPBiCG:  Solving for T, Initial residual = 0.00279841, Final residual = 4.76229e-07, No Iterations 6
Time = 0.0296

DILUPBiCG:  Solving for T, Initial residual = 0.00280574, Final residual = 4.81752e-07, No Iterations 6
Time = 0.0297

DILUPBiCG:  Solving for T, Initial residual = 0.00281302, Final residual = 4.88189e-07, No Iterations 6
Time = 0.0298

DILUPBiCG:  Solving for T, Initial residual = 0.00282029, Final residual = 4.956e-07, No Iterations 6
Time = 0.0299

DILUPBiCG:  Solving for T, Initial residual = 0.00282754, Final residual = 5.03984e-07, No Iterations 6
Time = 0.03

DILUPBiCG:  Solving for T, Initial residual = 0.00283476, Final residual = 5.13363e-07, No Iterations 6
Time = 0.0301

DILUPBiCG:  Solving for T, Initial residual = 0.00284192, Final residual = 5.24138e-07, No Iterations 6
Time = 0.0302

DILUPBiCG:  Solving for T, Initial residual = 0.00284901, Final residual = 5.36926e-07, No Iterations 6
Time = 0.0303

DILUPBiCG:  Solving for T, Initial residual = 0.00285606, Final residual = 5.51354e-07, No Iterations 6
Time = 0.0304

DILUPBiCG:  Solving for T, Initial residual = 0.00286307, Final residual = 5.67806e-07, No Iterations 6
Time = 0.0305

DILUPBiCG:  Solving for T, Initial residual = 0.00287001, Final residual = 5.86508e-07, No Iterations 6
Time = 0.0306

DILUPBiCG:  Solving for T, Initial residual = 0.00287686, Final residual = 6.0771e-07, No Iterations 6
Time = 0.0307

DILUPBiCG:  Solving for T, Initial residual = 0.00288363, Final residual = 6.32544e-07, No Iterations 6
Time = 0.0308

DILUPBiCG:  Solving for T, Initial residual = 0.00289032, Final residual = 6.60022e-07, No Iterations 6
Time = 0.0309

DILUPBiCG:  Solving for T, Initial residual = 0.00289692, Final residual = 6.91481e-07, No Iterations 6
Time = 0.031

DILUPBiCG:  Solving for T, Initial residual = 0.00290343, Final residual = 7.27038e-07, No Iterations 6
Time = 0.0311

DILUPBiCG:  Solving for T, Initial residual = 0.00290983, Final residual = 7.67494e-07, No Iterations 6
Time = 0.0312

DILUPBiCG:  Solving for T, Initial residual = 0.00291612, Final residual = 8.13906e-07, No Iterations 6
Time = 0.0313

DILUPBiCG:  Solving for T, Initial residual = 0.00292228, Final residual = 8.67231e-07, No Iterations 6
Time = 0.0314

DILUPBiCG:  Solving for T, Initial residual = 0.00292832, Final residual = 9.27809e-07, No Iterations 6
Time = 0.0315

DILUPBiCG:  Solving for T, Initial residual = 0.00293424, Final residual = 9.97741e-07, No Iterations 6
Time = 0.0316

DILUPBiCG:  Solving for T, Initial residual = 0.00294002, Final residual = 1.96674e-07, No Iterations 7
Time = 0.0317

DILUPBiCG:  Solving for T, Initial residual = 0.00294565, Final residual = 1.89599e-07, No Iterations 7
Time = 0.0318

DILUPBiCG:  Solving for T, Initial residual = 0.00295113, Final residual = 1.84587e-07, No Iterations 7
Time = 0.0319

DILUPBiCG:  Solving for T, Initial residual = 0.00295644, Final residual = 1.81151e-07, No Iterations 7
Time = 0.032

DILUPBiCG:  Solving for T, Initial residual = 0.00296159, Final residual = 1.78975e-07, No Iterations 7
Time = 0.0321

DILUPBiCG:  Solving for T, Initial residual = 0.00296658, Final residual = 1.77942e-07, No Iterations 7
Time = 0.0322

DILUPBiCG:  Solving for T, Initial residual = 0.0029714, Final residual = 1.7769e-07, No Iterations 7
Time = 0.0323

DILUPBiCG:  Solving for T, Initial residual = 0.00297604, Final residual = 1.77991e-07, No Iterations 7
Time = 0.0324

DILUPBiCG:  Solving for T, Initial residual = 0.00298047, Final residual = 1.7887e-07, No Iterations 7
Time = 0.0325

DILUPBiCG:  Solving for T, Initial residual = 0.0029847, Final residual = 1.80202e-07, No Iterations 7
Time = 0.0326

DILUPBiCG:  Solving for T, Initial residual = 0.00298874, Final residual = 9.92119e-07, No Iterations 5
Time = 0.0327

DILUPBiCG:  Solving for T, Initial residual = 0.00299258, Final residual = 9.78857e-07, No Iterations 5
Time = 0.0328

DILUPBiCG:  Solving for T, Initial residual = 0.00299621, Final residual = 9.66878e-07, No Iterations 5
Time = 0.0329

DILUPBiCG:  Solving for T, Initial residual = 0.00299963, Final residual = 9.55768e-07, No Iterations 5
Time = 0.033

DILUPBiCG:  Solving for T, Initial residual = 0.0030028, Final residual = 9.45541e-07, No Iterations 5
Time = 0.0331

DILUPBiCG:  Solving for T, Initial residual = 0.00300573, Final residual = 9.35837e-07, No Iterations 5
Time = 0.0332

DILUPBiCG:  Solving for T, Initial residual = 0.00300843, Final residual = 9.27301e-07, No Iterations 5
Time = 0.0333

DILUPBiCG:  Solving for T, Initial residual = 0.00301091, Final residual = 9.19514e-07, No Iterations 5
Time = 0.0334

DILUPBiCG:  Solving for T, Initial residual = 0.00301316, Final residual = 9.12776e-07, No Iterations 5
Time = 0.0335

DILUPBiCG:  Solving for T, Initial residual = 0.00301516, Final residual = 9.06921e-07, No Iterations 5
Time = 0.0336

DILUPBiCG:  Solving for T, Initial residual = 0.00301689, Final residual = 9.02093e-07, No Iterations 5
Time = 0.0337

DILUPBiCG:  Solving for T, Initial residual = 0.00301834, Final residual = 8.98171e-07, No Iterations 5
Time = 0.0338

DILUPBiCG:  Solving for T, Initial residual = 0.00301954, Final residual = 8.95497e-07, No Iterations 5
Time = 0.0339

DILUPBiCG:  Solving for T, Initial residual = 0.0030205, Final residual = 8.93873e-07, No Iterations 5
Time = 0.034

DILUPBiCG:  Solving for T, Initial residual = 0.00302122, Final residual = 8.93171e-07, No Iterations 5
Time = 0.0341

DILUPBiCG:  Solving for T, Initial residual = 0.00302167, Final residual = 8.93083e-07, No Iterations 5
Time = 0.0342

DILUPBiCG:  Solving for T, Initial residual = 0.00302184, Final residual = 8.93852e-07, No Iterations 5
Time = 0.0343

DILUPBiCG:  Solving for T, Initial residual = 0.0030217, Final residual = 8.95818e-07, No Iterations 5
Time = 0.0344

DILUPBiCG:  Solving for T, Initial residual = 0.00302128, Final residual = 8.98808e-07, No Iterations 5
Time = 0.0345

DILUPBiCG:  Solving for T, Initial residual = 0.00302061, Final residual = 9.0281e-07, No Iterations 5
Time = 0.0346

DILUPBiCG:  Solving for T, Initial residual = 0.00301968, Final residual = 9.07809e-07, No Iterations 5
Time = 0.0347

DILUPBiCG:  Solving for T, Initial residual = 0.0030185, Final residual = 9.13949e-07, No Iterations 5
Time = 0.0348

DILUPBiCG:  Solving for T, Initial residual = 0.00301705, Final residual = 9.21384e-07, No Iterations 5
Time = 0.0349

DILUPBiCG:  Solving for T, Initial residual = 0.00301529, Final residual = 9.29812e-07, No Iterations 5
Time = 0.035

DILUPBiCG:  Solving for T, Initial residual = 0.00301322, Final residual = 9.39451e-07, No Iterations 5
Time = 0.0351

DILUPBiCG:  Solving for T, Initial residual = 0.00301087, Final residual = 9.49844e-07, No Iterations 5
Time = 0.0352

DILUPBiCG:  Solving for T, Initial residual = 0.00300827, Final residual = 9.61484e-07, No Iterations 5
Time = 0.0353

DILUPBiCG:  Solving for T, Initial residual = 0.00300541, Final residual = 9.7382e-07, No Iterations 5
Time = 0.0354

DILUPBiCG:  Solving for T, Initial residual = 0.0030023, Final residual = 9.86955e-07, No Iterations 5
Time = 0.0355

DILUPBiCG:  Solving for T, Initial residual = 0.00299893, Final residual = 3.24605e-07, No Iterations 7
Time = 0.0356

DILUPBiCG:  Solving for T, Initial residual = 0.00299528, Final residual = 3.32274e-07, No Iterations 7
Time = 0.0357

DILUPBiCG:  Solving for T, Initial residual = 0.00299133, Final residual = 3.39747e-07, No Iterations 7
Time = 0.0358

DILUPBiCG:  Solving for T, Initial residual = 0.00298709, Final residual = 3.46391e-07, No Iterations 7
Time = 0.0359

DILUPBiCG:  Solving for T, Initial residual = 0.00298261, Final residual = 3.5359e-07, No Iterations 7
Time = 0.036

DILUPBiCG:  Solving for T, Initial residual = 0.0029779, Final residual = 3.59809e-07, No Iterations 7
Time = 0.0361

DILUPBiCG:  Solving for T, Initial residual = 0.00297295, Final residual = 3.66465e-07, No Iterations 7
Time = 0.0362

DILUPBiCG:  Solving for T, Initial residual = 0.00296777, Final residual = 3.72929e-07, No Iterations 7
Time = 0.0363

DILUPBiCG:  Solving for T, Initial residual = 0.00296235, Final residual = 3.78973e-07, No Iterations 7
Time = 0.0364

DILUPBiCG:  Solving for T, Initial residual = 0.00295667, Final residual = 3.84504e-07, No Iterations 7
Time = 0.0365

DILUPBiCG:  Solving for T, Initial residual = 0.00295072, Final residual = 3.90535e-07, No Iterations 7
Time = 0.0366

DILUPBiCG:  Solving for T, Initial residual = 0.00294454, Final residual = 3.9517e-07, No Iterations 7
Time = 0.0367

DILUPBiCG:  Solving for T, Initial residual = 0.00293815, Final residual = 4.005e-07, No Iterations 7
Time = 0.0368

DILUPBiCG:  Solving for T, Initial residual = 0.00293155, Final residual = 4.06058e-07, No Iterations 7
Time = 0.0369

DILUPBiCG:  Solving for T, Initial residual = 0.00292476, Final residual = 4.10903e-07, No Iterations 7
Time = 0.037

DILUPBiCG:  Solving for T, Initial residual = 0.00291778, Final residual = 4.15254e-07, No Iterations 7
Time = 0.0371

DILUPBiCG:  Solving for T, Initial residual = 0.0029106, Final residual = 4.1962e-07, No Iterations 7
Time = 0.0372

DILUPBiCG:  Solving for T, Initial residual = 0.0029032, Final residual = 4.23824e-07, No Iterations 7
Time = 0.0373

DILUPBiCG:  Solving for T, Initial residual = 0.00289559, Final residual = 4.27441e-07, No Iterations 7
Time = 0.0374

DILUPBiCG:  Solving for T, Initial residual = 0.0028878, Final residual = 4.31093e-07, No Iterations 7
Time = 0.0375

DILUPBiCG:  Solving for T, Initial residual = 0.00287985, Final residual = 4.35072e-07, No Iterations 7
Time = 0.0376

DILUPBiCG:  Solving for T, Initial residual = 0.00287174, Final residual = 4.38603e-07, No Iterations 7
Time = 0.0377

DILUPBiCG:  Solving for T, Initial residual = 0.00286348, Final residual = 4.41918e-07, No Iterations 7
Time = 0.0378

DILUPBiCG:  Solving for T, Initial residual = 0.00285508, Final residual = 4.44976e-07, No Iterations 7
Time = 0.0379

DILUPBiCG:  Solving for T, Initial residual = 0.00284654, Final residual = 4.48392e-07, No Iterations 7
Time = 0.038

DILUPBiCG:  Solving for T, Initial residual = 0.00283786, Final residual = 4.50836e-07, No Iterations 7
Time = 0.0381

DILUPBiCG:  Solving for T, Initial residual = 0.00282902, Final residual = 4.53846e-07, No Iterations 7
Time = 0.0382

DILUPBiCG:  Solving for T, Initial residual = 0.00282004, Final residual = 4.56693e-07, No Iterations 7
Time = 0.0383

DILUPBiCG:  Solving for T, Initial residual = 0.00281095, Final residual = 4.59648e-07, No Iterations 7
Time = 0.0384

DILUPBiCG:  Solving for T, Initial residual = 0.00280177, Final residual = 4.62078e-07, No Iterations 7
Time = 0.0385

DILUPBiCG:  Solving for T, Initial residual = 0.0027925, Final residual = 4.6517e-07, No Iterations 7
Time = 0.0386

DILUPBiCG:  Solving for T, Initial residual = 0.00278315, Final residual = 4.67346e-07, No Iterations 7
Time = 0.0387

DILUPBiCG:  Solving for T, Initial residual = 0.00277372, Final residual = 4.69351e-07, No Iterations 7
Time = 0.0388

DILUPBiCG:  Solving for T, Initial residual = 0.00276423, Final residual = 4.7169e-07, No Iterations 7
Time = 0.0389

DILUPBiCG:  Solving for T, Initial residual = 0.00275466, Final residual = 4.74516e-07, No Iterations 7
Time = 0.039

DILUPBiCG:  Solving for T, Initial residual = 0.00274501, Final residual = 4.77196e-07, No Iterations 7
Time = 0.0391

DILUPBiCG:  Solving for T, Initial residual = 0.00273529, Final residual = 4.7928e-07, No Iterations 7
Time = 0.0392

DILUPBiCG:  Solving for T, Initial residual = 0.00272552, Final residual = 4.81882e-07, No Iterations 7
Time = 0.0393

DILUPBiCG:  Solving for T, Initial residual = 0.00271572, Final residual = 4.84432e-07, No Iterations 7
Time = 0.0394

DILUPBiCG:  Solving for T, Initial residual = 0.0027059, Final residual = 4.87015e-07, No Iterations 7
Time = 0.0395

DILUPBiCG:  Solving for T, Initial residual = 0.00269606, Final residual = 4.89236e-07, No Iterations 7
Time = 0.0396

DILUPBiCG:  Solving for T, Initial residual = 0.00268621, Final residual = 4.90972e-07, No Iterations 7
Time = 0.0397

DILUPBiCG:  Solving for T, Initial residual = 0.00267635, Final residual = 4.93793e-07, No Iterations 7
Time = 0.0398

DILUPBiCG:  Solving for T, Initial residual = 0.0026665, Final residual = 4.9657e-07, No Iterations 7
Time = 0.0399

DILUPBiCG:  Solving for T, Initial residual = 0.00265664, Final residual = 4.98877e-07, No Iterations 7
Time = 0.04

DILUPBiCG:  Solving for T, Initial residual = 0.00264677, Final residual = 5.01797e-07, No Iterations 7
Time = 0.0401

DILUPBiCG:  Solving for T, Initial residual = 0.0026369, Final residual = 5.04488e-07, No Iterations 7
Time = 0.0402

DILUPBiCG:  Solving for T, Initial residual = 0.00262706, Final residual = 5.06993e-07, No Iterations 7
Time = 0.0403

DILUPBiCG:  Solving for T, Initial residual = 0.00261724, Final residual = 5.09908e-07, No Iterations 7
Time = 0.0404

DILUPBiCG:  Solving for T, Initial residual = 0.00260746, Final residual = 5.12697e-07, No Iterations 7
Time = 0.0405

DILUPBiCG:  Solving for T, Initial residual = 0.00259772, Final residual = 5.16211e-07, No Iterations 7
Time = 0.0406

DILUPBiCG:  Solving for T, Initial residual = 0.00258803, Final residual = 5.19068e-07, No Iterations 7
Time = 0.0407

DILUPBiCG:  Solving for T, Initial residual = 0.00257839, Final residual = 5.22294e-07, No Iterations 7
Time = 0.0408

DILUPBiCG:  Solving for T, Initial residual = 0.0025688, Final residual = 5.249e-07, No Iterations 7
Time = 0.0409

DILUPBiCG:  Solving for T, Initial residual = 0.00255928, Final residual = 5.28629e-07, No Iterations 7
Time = 0.041

DILUPBiCG:  Solving for T, Initial residual = 0.00254981, Final residual = 5.32261e-07, No Iterations 7
Time = 0.0411

DILUPBiCG:  Solving for T, Initial residual = 0.00254039, Final residual = 5.35456e-07, No Iterations 7
Time = 0.0412

DILUPBiCG:  Solving for T, Initial residual = 0.00253104, Final residual = 5.39115e-07, No Iterations 7
Time = 0.0413

DILUPBiCG:  Solving for T, Initial residual = 0.00252176, Final residual = 5.43272e-07, No Iterations 7
Time = 0.0414

DILUPBiCG:  Solving for T, Initial residual = 0.00251255, Final residual = 5.46779e-07, No Iterations 7
Time = 0.0415

DILUPBiCG:  Solving for T, Initial residual = 0.00250344, Final residual = 5.50838e-07, No Iterations 7
Time = 0.0416

DILUPBiCG:  Solving for T, Initial residual = 0.00249441, Final residual = 5.54485e-07, No Iterations 7
Time = 0.0417

DILUPBiCG:  Solving for T, Initial residual = 0.00248548, Final residual = 5.58628e-07, No Iterations 7
Time = 0.0418

DILUPBiCG:  Solving for T, Initial residual = 0.00247663, Final residual = 5.62986e-07, No Iterations 7
Time = 0.0419

DILUPBiCG:  Solving for T, Initial residual = 0.00246789, Final residual = 5.67406e-07, No Iterations 7
Time = 0.042

DILUPBiCG:  Solving for T, Initial residual = 0.00245923, Final residual = 5.72232e-07, No Iterations 7
Time = 0.0421

DILUPBiCG:  Solving for T, Initial residual = 0.00245068, Final residual = 5.7722e-07, No Iterations 7
Time = 0.0422

DILUPBiCG:  Solving for T, Initial residual = 0.00244222, Final residual = 5.81998e-07, No Iterations 7
Time = 0.0423

DILUPBiCG:  Solving for T, Initial residual = 0.00243384, Final residual = 5.87496e-07, No Iterations 7
Time = 0.0424

DILUPBiCG:  Solving for T, Initial residual = 0.00242557, Final residual = 5.93081e-07, No Iterations 7
Time = 0.0425

DILUPBiCG:  Solving for T, Initial residual = 0.00241741, Final residual = 5.9843e-07, No Iterations 7
Time = 0.0426

DILUPBiCG:  Solving for T, Initial residual = 0.00240935, Final residual = 6.03977e-07, No Iterations 7
Time = 0.0427

DILUPBiCG:  Solving for T, Initial residual = 0.00240141, Final residual = 6.09749e-07, No Iterations 7
Time = 0.0428

DILUPBiCG:  Solving for T, Initial residual = 0.00239357, Final residual = 6.16748e-07, No Iterations 7
Time = 0.0429

DILUPBiCG:  Solving for T, Initial residual = 0.00238584, Final residual = 6.23443e-07, No Iterations 7
Time = 0.043

DILUPBiCG:  Solving for T, Initial residual = 0.00237822, Final residual = 6.31023e-07, No Iterations 7
Time = 0.0431

DILUPBiCG:  Solving for T, Initial residual = 0.00237072, Final residual = 6.38363e-07, No Iterations 7
Time = 0.0432

DILUPBiCG:  Solving for T, Initial residual = 0.00236334, Final residual = 6.45526e-07, No Iterations 7
Time = 0.0433

DILUPBiCG:  Solving for T, Initial residual = 0.00235607, Final residual = 6.53173e-07, No Iterations 7
Time = 0.0434

DILUPBiCG:  Solving for T, Initial residual = 0.00234891, Final residual = 6.61506e-07, No Iterations 7
Time = 0.0435

DILUPBiCG:  Solving for T, Initial residual = 0.00234187, Final residual = 6.68907e-07, No Iterations 7
Time = 0.0436

DILUPBiCG:  Solving for T, Initial residual = 0.00233493, Final residual = 6.76784e-07, No Iterations 7
Time = 0.0437

DILUPBiCG:  Solving for T, Initial residual = 0.0023281, Final residual = 6.84638e-07, No Iterations 7
Time = 0.0438

DILUPBiCG:  Solving for T, Initial residual = 0.00232138, Final residual = 6.91948e-07, No Iterations 7
Time = 0.0439

DILUPBiCG:  Solving for T, Initial residual = 0.00231478, Final residual = 7.001e-07, No Iterations 7
Time = 0.044

DILUPBiCG:  Solving for T, Initial residual = 0.00230829, Final residual = 7.08581e-07, No Iterations 7
Time = 0.0441

DILUPBiCG:  Solving for T, Initial residual = 0.00230191, Final residual = 7.17845e-07, No Iterations 7
Time = 0.0442

DILUPBiCG:  Solving for T, Initial residual = 0.00229564, Final residual = 7.265e-07, No Iterations 7
Time = 0.0443

DILUPBiCG:  Solving for T, Initial residual = 0.00228949, Final residual = 7.34748e-07, No Iterations 7
Time = 0.0444

DILUPBiCG:  Solving for T, Initial residual = 0.00228345, Final residual = 7.4374e-07, No Iterations 7
Time = 0.0445

DILUPBiCG:  Solving for T, Initial residual = 0.00227751, Final residual = 7.53054e-07, No Iterations 7
Time = 0.0446

DILUPBiCG:  Solving for T, Initial residual = 0.00227169, Final residual = 7.638e-07, No Iterations 7
Time = 0.0447

DILUPBiCG:  Solving for T, Initial residual = 0.00226597, Final residual = 7.74314e-07, No Iterations 7
Time = 0.0448

DILUPBiCG:  Solving for T, Initial residual = 0.00226036, Final residual = 7.8448e-07, No Iterations 7
Time = 0.0449

DILUPBiCG:  Solving for T, Initial residual = 0.00225486, Final residual = 7.93522e-07, No Iterations 7
Time = 0.045

DILUPBiCG:  Solving for T, Initial residual = 0.00224945, Final residual = 8.05732e-07, No Iterations 7
Time = 0.0451

DILUPBiCG:  Solving for T, Initial residual = 0.00224415, Final residual = 8.17239e-07, No Iterations 7
Time = 0.0452

DILUPBiCG:  Solving for T, Initial residual = 0.00223894, Final residual = 8.27811e-07, No Iterations 7
Time = 0.0453

DILUPBiCG:  Solving for T, Initial residual = 0.00223383, Final residual = 8.38946e-07, No Iterations 7
Time = 0.0454

DILUPBiCG:  Solving for T, Initial residual = 0.00222882, Final residual = 8.49651e-07, No Iterations 7
Time = 0.0455

DILUPBiCG:  Solving for T, Initial residual = 0.00222391, Final residual = 8.62468e-07, No Iterations 7
Time = 0.0456

DILUPBiCG:  Solving for T, Initial residual = 0.00221909, Final residual = 8.75679e-07, No Iterations 7
Time = 0.0457

DILUPBiCG:  Solving for T, Initial residual = 0.00221437, Final residual = 8.89153e-07, No Iterations 7
Time = 0.0458

DILUPBiCG:  Solving for T, Initial residual = 0.00220974, Final residual = 9.01053e-07, No Iterations 7
Time = 0.0459

DILUPBiCG:  Solving for T, Initial residual = 0.0022052, Final residual = 9.14828e-07, No Iterations 7
Time = 0.046

DILUPBiCG:  Solving for T, Initial residual = 0.00220075, Final residual = 9.29929e-07, No Iterations 7
Time = 0.0461

DILUPBiCG:  Solving for T, Initial residual = 0.00219639, Final residual = 9.4436e-07, No Iterations 7
Time = 0.0462

DILUPBiCG:  Solving for T, Initial residual = 0.00219212, Final residual = 9.59426e-07, No Iterations 7
Time = 0.0463

DILUPBiCG:  Solving for T, Initial residual = 0.00218793, Final residual = 9.74405e-07, No Iterations 7
Time = 0.0464

DILUPBiCG:  Solving for T, Initial residual = 0.00218383, Final residual = 9.88568e-07, No Iterations 7
Time = 0.0465

DILUPBiCG:  Solving for T, Initial residual = 0.00217981, Final residual = 5.27645e-08, No Iterations 8
Time = 0.0466

DILUPBiCG:  Solving for T, Initial residual = 0.00217587, Final residual = 5.26867e-08, No Iterations 8
Time = 0.0467

DILUPBiCG:  Solving for T, Initial residual = 0.00217201, Final residual = 5.26187e-08, No Iterations 8
Time = 0.0468

DILUPBiCG:  Solving for T, Initial residual = 0.00216823, Final residual = 5.25836e-08, No Iterations 8
Time = 0.0469

DILUPBiCG:  Solving for T, Initial residual = 0.00216452, Final residual = 5.25509e-08, No Iterations 8
Time = 0.047

DILUPBiCG:  Solving for T, Initial residual = 0.00216089, Final residual = 5.25326e-08, No Iterations 8
Time = 0.0471

DILUPBiCG:  Solving for T, Initial residual = 0.00215732, Final residual = 5.25136e-08, No Iterations 8
Time = 0.0472

DILUPBiCG:  Solving for T, Initial residual = 0.00215383, Final residual = 5.24965e-08, No Iterations 8
Time = 0.0473

DILUPBiCG:  Solving for T, Initial residual = 0.00215041, Final residual = 5.24478e-08, No Iterations 8
Time = 0.0474

DILUPBiCG:  Solving for T, Initial residual = 0.00214706, Final residual = 5.24077e-08, No Iterations 8
Time = 0.0475

DILUPBiCG:  Solving for T, Initial residual = 0.00214377, Final residual = 5.24825e-08, No Iterations 8
Time = 0.0476

DILUPBiCG:  Solving for T, Initial residual = 0.00214054, Final residual = 5.24254e-08, No Iterations 8
Time = 0.0477

DILUPBiCG:  Solving for T, Initial residual = 0.00213738, Final residual = 5.24231e-08, No Iterations 8
Time = 0.0478

DILUPBiCG:  Solving for T, Initial residual = 0.00213428, Final residual = 5.2396e-08, No Iterations 8
Time = 0.0479

DILUPBiCG:  Solving for T, Initial residual = 0.00213124, Final residual = 5.23841e-08, No Iterations 8
Time = 0.048

DILUPBiCG:  Solving for T, Initial residual = 0.00212827, Final residual = 5.23507e-08, No Iterations 8
Time = 0.0481

DILUPBiCG:  Solving for T, Initial residual = 0.00212535, Final residual = 5.23651e-08, No Iterations 8
Time = 0.0482

DILUPBiCG:  Solving for T, Initial residual = 0.00212248, Final residual = 5.23922e-08, No Iterations 8
Time = 0.0483

DILUPBiCG:  Solving for T, Initial residual = 0.00211968, Final residual = 5.23327e-08, No Iterations 8
Time = 0.0484

DILUPBiCG:  Solving for T, Initial residual = 0.00211693, Final residual = 5.22906e-08, No Iterations 8
Time = 0.0485

DILUPBiCG:  Solving for T, Initial residual = 0.00211423, Final residual = 5.22406e-08, No Iterations 8
Time = 0.0486

DILUPBiCG:  Solving for T, Initial residual = 0.00211159, Final residual = 5.22736e-08, No Iterations 8
Time = 0.0487

DILUPBiCG:  Solving for T, Initial residual = 0.00210899, Final residual = 5.22926e-08, No Iterations 8
Time = 0.0488

DILUPBiCG:  Solving for T, Initial residual = 0.00210645, Final residual = 5.23007e-08, No Iterations 8
Time = 0.0489

DILUPBiCG:  Solving for T, Initial residual = 0.00210396, Final residual = 5.23469e-08, No Iterations 8
Time = 0.049

DILUPBiCG:  Solving for T, Initial residual = 0.00210151, Final residual = 5.23696e-08, No Iterations 8
Time = 0.0491

DILUPBiCG:  Solving for T, Initial residual = 0.00209911, Final residual = 5.23414e-08, No Iterations 8
Time = 0.0492

DILUPBiCG:  Solving for T, Initial residual = 0.00209676, Final residual = 5.2337e-08, No Iterations 8
Time = 0.0493

DILUPBiCG:  Solving for T, Initial residual = 0.00209445, Final residual = 5.23183e-08, No Iterations 8
Time = 0.0494

DILUPBiCG:  Solving for T, Initial residual = 0.00209218, Final residual = 5.24112e-08, No Iterations 8
Time = 0.0495

DILUPBiCG:  Solving for T, Initial residual = 0.00208996, Final residual = 5.24163e-08, No Iterations 8
Time = 0.0496

DILUPBiCG:  Solving for T, Initial residual = 0.00208778, Final residual = 5.24456e-08, No Iterations 8
Time = 0.0497

DILUPBiCG:  Solving for T, Initial residual = 0.00208564, Final residual = 5.24403e-08, No Iterations 8
Time = 0.0498

DILUPBiCG:  Solving for T, Initial residual = 0.00208353, Final residual = 5.2457e-08, No Iterations 8
Time = 0.0499

DILUPBiCG:  Solving for T, Initial residual = 0.00208147, Final residual = 5.24883e-08, No Iterations 8
Time = 0.05

DILUPBiCG:  Solving for T, Initial residual = 0.00207944, Final residual = 5.25405e-08, No Iterations 8
Time = 0.0501

DILUPBiCG:  Solving for T, Initial residual = 0.00207745, Final residual = 5.26399e-08, No Iterations 8
Time = 0.0502

DILUPBiCG:  Solving for T, Initial residual = 0.00207549, Final residual = 5.27499e-08, No Iterations 8
Time = 0.0503

DILUPBiCG:  Solving for T, Initial residual = 0.00207357, Final residual = 5.279e-08, No Iterations 8
Time = 0.0504

DILUPBiCG:  Solving for T, Initial residual = 0.00207168, Final residual = 5.28393e-08, No Iterations 8
Time = 0.0505

DILUPBiCG:  Solving for T, Initial residual = 0.00206982, Final residual = 5.28707e-08, No Iterations 8
Time = 0.0506

DILUPBiCG:  Solving for T, Initial residual = 0.002068, Final residual = 5.29202e-08, No Iterations 8
Time = 0.0507

DILUPBiCG:  Solving for T, Initial residual = 0.00206621, Final residual = 5.29639e-08, No Iterations 8
Time = 0.0508

DILUPBiCG:  Solving for T, Initial residual = 0.00206445, Final residual = 5.30026e-08, No Iterations 8
Time = 0.0509

DILUPBiCG:  Solving for T, Initial residual = 0.00206272, Final residual = 5.2993e-08, No Iterations 8
Time = 0.051

DILUPBiCG:  Solving for T, Initial residual = 0.00206101, Final residual = 5.30019e-08, No Iterations 8
Time = 0.0511

DILUPBiCG:  Solving for T, Initial residual = 0.00205934, Final residual = 5.30472e-08, No Iterations 8
Time = 0.0512

DILUPBiCG:  Solving for T, Initial residual = 0.0020577, Final residual = 5.45023e-08, No Iterations 8
Time = 0.0513

DILUPBiCG:  Solving for T, Initial residual = 0.00205608, Final residual = 5.47561e-08, No Iterations 8
Time = 0.0514

DILUPBiCG:  Solving for T, Initial residual = 0.00205449, Final residual = 5.6287e-08, No Iterations 8
Time = 0.0515

DILUPBiCG:  Solving for T, Initial residual = 0.00205292, Final residual = 5.6377e-08, No Iterations 8
Time = 0.0516

DILUPBiCG:  Solving for T, Initial residual = 0.00205138, Final residual = 5.71735e-08, No Iterations 8
Time = 0.0517

DILUPBiCG:  Solving for T, Initial residual = 0.00204987, Final residual = 5.72129e-08, No Iterations 8
Time = 0.0518

DILUPBiCG:  Solving for T, Initial residual = 0.00204838, Final residual = 5.7216e-08, No Iterations 8
Time = 0.0519

DILUPBiCG:  Solving for T, Initial residual = 0.00204691, Final residual = 5.69876e-08, No Iterations 8
Time = 0.052

DILUPBiCG:  Solving for T, Initial residual = 0.00204547, Final residual = 5.89477e-08, No Iterations 8
Time = 0.0521

DILUPBiCG:  Solving for T, Initial residual = 0.00204404, Final residual = 5.85247e-08, No Iterations 8
Time = 0.0522

DILUPBiCG:  Solving for T, Initial residual = 0.00204265, Final residual = 5.794e-08, No Iterations 8
Time = 0.0523

DILUPBiCG:  Solving for T, Initial residual = 0.00204127, Final residual = 6.00628e-08, No Iterations 8
Time = 0.0524

DILUPBiCG:  Solving for T, Initial residual = 0.00203991, Final residual = 5.93502e-08, No Iterations 8
Time = 0.0525

DILUPBiCG:  Solving for T, Initial residual = 0.00203857, Final residual = 5.88111e-08, No Iterations 8
Time = 0.0526

DILUPBiCG:  Solving for T, Initial residual = 0.00203726, Final residual = 5.90075e-08, No Iterations 8
Time = 0.0527

DILUPBiCG:  Solving for T, Initial residual = 0.00203596, Final residual = 5.79504e-08, No Iterations 8
Time = 0.0528

DILUPBiCG:  Solving for T, Initial residual = 0.00203468, Final residual = 5.80043e-08, No Iterations 8
Time = 0.0529

DILUPBiCG:  Solving for T, Initial residual = 0.00203342, Final residual = 5.77261e-08, No Iterations 8
Time = 0.053

DILUPBiCG:  Solving for T, Initial residual = 0.00203218, Final residual = 5.77368e-08, No Iterations 8
Time = 0.0531

DILUPBiCG:  Solving for T, Initial residual = 0.00203095, Final residual = 5.85726e-08, No Iterations 8
Time = 0.0532

DILUPBiCG:  Solving for T, Initial residual = 0.00202974, Final residual = 5.83156e-08, No Iterations 8
Time = 0.0533

DILUPBiCG:  Solving for T, Initial residual = 0.00202855, Final residual = 5.92129e-08, No Iterations 8
Time = 0.0534

DILUPBiCG:  Solving for T, Initial residual = 0.00202738, Final residual = 5.85622e-08, No Iterations 8
Time = 0.0535

DILUPBiCG:  Solving for T, Initial residual = 0.00202622, Final residual = 5.77842e-08, No Iterations 8
Time = 0.0536

DILUPBiCG:  Solving for T, Initial residual = 0.00202508, Final residual = 5.77593e-08, No Iterations 8
Time = 0.0537

DILUPBiCG:  Solving for T, Initial residual = 0.00202396, Final residual = 5.78336e-08, No Iterations 8
Time = 0.0538

DILUPBiCG:  Solving for T, Initial residual = 0.00202284, Final residual = 5.84341e-08, No Iterations 8
Time = 0.0539

DILUPBiCG:  Solving for T, Initial residual = 0.00202175, Final residual = 5.83448e-08, No Iterations 8
Time = 0.054

DILUPBiCG:  Solving for T, Initial residual = 0.00202067, Final residual = 5.80267e-08, No Iterations 8
Time = 0.0541

DILUPBiCG:  Solving for T, Initial residual = 0.0020196, Final residual = 5.78944e-08, No Iterations 8
Time = 0.0542

DILUPBiCG:  Solving for T, Initial residual = 0.00201855, Final residual = 5.79071e-08, No Iterations 8
Time = 0.0543

DILUPBiCG:  Solving for T, Initial residual = 0.00201751, Final residual = 5.96392e-08, No Iterations 8
Time = 0.0544

DILUPBiCG:  Solving for T, Initial residual = 0.00201649, Final residual = 5.9201e-08, No Iterations 8
Time = 0.0545

DILUPBiCG:  Solving for T, Initial residual = 0.00201547, Final residual = 5.93097e-08, No Iterations 8
Time = 0.0546

DILUPBiCG:  Solving for T, Initial residual = 0.00201448, Final residual = 5.8294e-08, No Iterations 8
Time = 0.0547

DILUPBiCG:  Solving for T, Initial residual = 0.00201349, Final residual = 5.88229e-08, No Iterations 8
Time = 0.0548

DILUPBiCG:  Solving for T, Initial residual = 0.00201252, Final residual = 5.87859e-08, No Iterations 8
Time = 0.0549

DILUPBiCG:  Solving for T, Initial residual = 0.00201156, Final residual = 5.87457e-08, No Iterations 8
Time = 0.055

DILUPBiCG:  Solving for T, Initial residual = 0.00201061, Final residual = 5.87174e-08, No Iterations 8
Time = 0.0551

DILUPBiCG:  Solving for T, Initial residual = 0.00200967, Final residual = 5.8691e-08, No Iterations 8
Time = 0.0552

DILUPBiCG:  Solving for T, Initial residual = 0.00200875, Final residual = 5.87924e-08, No Iterations 8
Time = 0.0553

DILUPBiCG:  Solving for T, Initial residual = 0.00200783, Final residual = 5.88561e-08, No Iterations 8
Time = 0.0554

DILUPBiCG:  Solving for T, Initial residual = 0.00200693, Final residual = 5.90461e-08, No Iterations 8
Time = 0.0555

DILUPBiCG:  Solving for T, Initial residual = 0.00200604, Final residual = 5.94232e-08, No Iterations 8
Time = 0.0556

DILUPBiCG:  Solving for T, Initial residual = 0.00200516, Final residual = 5.94031e-08, No Iterations 8
Time = 0.0557

DILUPBiCG:  Solving for T, Initial residual = 0.00200429, Final residual = 5.98664e-08, No Iterations 8
Time = 0.0558

DILUPBiCG:  Solving for T, Initial residual = 0.00200343, Final residual = 6.04091e-08, No Iterations 8
Time = 0.0559

DILUPBiCG:  Solving for T, Initial residual = 0.00200258, Final residual = 6.12469e-08, No Iterations 8
Time = 0.056

DILUPBiCG:  Solving for T, Initial residual = 0.00200174, Final residual = 6.11361e-08, No Iterations 8
Time = 0.0561

DILUPBiCG:  Solving for T, Initial residual = 0.00200091, Final residual = 6.00322e-08, No Iterations 8
Time = 0.0562

DILUPBiCG:  Solving for T, Initial residual = 0.00200008, Final residual = 6.00624e-08, No Iterations 8
Time = 0.0563

DILUPBiCG:  Solving for T, Initial residual = 0.00199927, Final residual = 6.01182e-08, No Iterations 8
Time = 0.0564

DILUPBiCG:  Solving for T, Initial residual = 0.00199847, Final residual = 6.02029e-08, No Iterations 8
Time = 0.0565

DILUPBiCG:  Solving for T, Initial residual = 0.00199768, Final residual = 6.02234e-08, No Iterations 8
Time = 0.0566

DILUPBiCG:  Solving for T, Initial residual = 0.00199689, Final residual = 6.02519e-08, No Iterations 8
Time = 0.0567

DILUPBiCG:  Solving for T, Initial residual = 0.00199612, Final residual = 6.0378e-08, No Iterations 8
Time = 0.0568

DILUPBiCG:  Solving for T, Initial residual = 0.00199535, Final residual = 6.03601e-08, No Iterations 8
Time = 0.0569

DILUPBiCG:  Solving for T, Initial residual = 0.00199459, Final residual = 6.03979e-08, No Iterations 8
Time = 0.057

DILUPBiCG:  Solving for T, Initial residual = 0.00199384, Final residual = 6.05084e-08, No Iterations 8
Time = 0.0571

DILUPBiCG:  Solving for T, Initial residual = 0.0019931, Final residual = 6.05757e-08, No Iterations 8
Time = 0.0572

DILUPBiCG:  Solving for T, Initial residual = 0.00199236, Final residual = 6.06944e-08, No Iterations 8
Time = 0.0573

DILUPBiCG:  Solving for T, Initial residual = 0.00199164, Final residual = 6.07676e-08, No Iterations 8
Time = 0.0574

DILUPBiCG:  Solving for T, Initial residual = 0.00199092, Final residual = 6.08152e-08, No Iterations 8
Time = 0.0575

DILUPBiCG:  Solving for T, Initial residual = 0.00199021, Final residual = 6.08894e-08, No Iterations 8
Time = 0.0576

DILUPBiCG:  Solving for T, Initial residual = 0.0019895, Final residual = 6.09307e-08, No Iterations 8
Time = 0.0577

DILUPBiCG:  Solving for T, Initial residual = 0.00198881, Final residual = 6.1499e-08, No Iterations 8
Time = 0.0578

DILUPBiCG:  Solving for T, Initial residual = 0.00198812, Final residual = 6.27355e-08, No Iterations 8
Time = 0.0579

DILUPBiCG:  Solving for T, Initial residual = 0.00198744, Final residual = 6.3233e-08, No Iterations 8
Time = 0.058

DILUPBiCG:  Solving for T, Initial residual = 0.00198676, Final residual = 6.36591e-08, No Iterations 8
Time = 0.0581

DILUPBiCG:  Solving for T, Initial residual = 0.00198609, Final residual = 6.36363e-08, No Iterations 8
Time = 0.0582

DILUPBiCG:  Solving for T, Initial residual = 0.00198543, Final residual = 6.34229e-08, No Iterations 8
Time = 0.0583

DILUPBiCG:  Solving for T, Initial residual = 0.00198478, Final residual = 6.22791e-08, No Iterations 8
Time = 0.0584

DILUPBiCG:  Solving for T, Initial residual = 0.00198413, Final residual = 6.23672e-08, No Iterations 8
Time = 0.0585

DILUPBiCG:  Solving for T, Initial residual = 0.00198349, Final residual = 6.24086e-08, No Iterations 8
Time = 0.0586

DILUPBiCG:  Solving for T, Initial residual = 0.00198285, Final residual = 6.24721e-08, No Iterations 8
Time = 0.0587

DILUPBiCG:  Solving for T, Initial residual = 0.00198223, Final residual = 6.26498e-08, No Iterations 8
Time = 0.0588

DILUPBiCG:  Solving for T, Initial residual = 0.0019816, Final residual = 6.26783e-08, No Iterations 8
Time = 0.0589

DILUPBiCG:  Solving for T, Initial residual = 0.00198099, Final residual = 6.27987e-08, No Iterations 8
Time = 0.059

DILUPBiCG:  Solving for T, Initial residual = 0.00198038, Final residual = 6.28671e-08, No Iterations 8
Time = 0.0591

DILUPBiCG:  Solving for T, Initial residual = 0.00197977, Final residual = 6.29176e-08, No Iterations 8
Time = 0.0592

DILUPBiCG:  Solving for T, Initial residual = 0.00197917, Final residual = 6.29789e-08, No Iterations 8
Time = 0.0593

DILUPBiCG:  Solving for T, Initial residual = 0.00197858, Final residual = 6.3046e-08, No Iterations 8
Time = 0.0594

DILUPBiCG:  Solving for T, Initial residual = 0.00197799, Final residual = 6.31814e-08, No Iterations 8
Time = 0.0595

DILUPBiCG:  Solving for T, Initial residual = 0.00197741, Final residual = 6.32538e-08, No Iterations 8
Time = 0.0596

DILUPBiCG:  Solving for T, Initial residual = 0.00197683, Final residual = 6.33349e-08, No Iterations 8
Time = 0.0597

DILUPBiCG:  Solving for T, Initial residual = 0.00197626, Final residual = 6.34081e-08, No Iterations 8
Time = 0.0598

DILUPBiCG:  Solving for T, Initial residual = 0.0019757, Final residual = 6.35518e-08, No Iterations 8
Time = 0.0599

DILUPBiCG:  Solving for T, Initial residual = 0.00197514, Final residual = 6.36859e-08, No Iterations 8
Time = 0.06

DILUPBiCG:  Solving for T, Initial residual = 0.00197458, Final residual = 6.37528e-08, No Iterations 8
Time = 0.0601

DILUPBiCG:  Solving for T, Initial residual = 0.00197403, Final residual = 6.38524e-08, No Iterations 8
Time = 0.0602

DILUPBiCG:  Solving for T, Initial residual = 0.00197348, Final residual = 6.40295e-08, No Iterations 8
Time = 0.0603

DILUPBiCG:  Solving for T, Initial residual = 0.00197294, Final residual = 6.41188e-08, No Iterations 8
Time = 0.0604

DILUPBiCG:  Solving for T, Initial residual = 0.00197241, Final residual = 6.31797e-08, No Iterations 8
Time = 0.0605

DILUPBiCG:  Solving for T, Initial residual = 0.00197188, Final residual = 6.32557e-08, No Iterations 8
Time = 0.0606

DILUPBiCG:  Solving for T, Initial residual = 0.00197135, Final residual = 6.33158e-08, No Iterations 8
Time = 0.0607

DILUPBiCG:  Solving for T, Initial residual = 0.00197083, Final residual = 6.34095e-08, No Iterations 8
Time = 0.0608

DILUPBiCG:  Solving for T, Initial residual = 0.00197031, Final residual = 6.39213e-08, No Iterations 8
Time = 0.0609

DILUPBiCG:  Solving for T, Initial residual = 0.0019698, Final residual = 6.4739e-08, No Iterations 8
Time = 0.061

DILUPBiCG:  Solving for T, Initial residual = 0.00196929, Final residual = 6.59828e-08, No Iterations 8
Time = 0.0611

DILUPBiCG:  Solving for T, Initial residual = 0.00196878, Final residual = 6.6156e-08, No Iterations 8
Time = 0.0612

DILUPBiCG:  Solving for T, Initial residual = 0.00196828, Final residual = 6.65235e-08, No Iterations 8
Time = 0.0613

DILUPBiCG:  Solving for T, Initial residual = 0.00196779, Final residual = 6.70294e-08, No Iterations 8
Time = 0.0614

DILUPBiCG:  Solving for T, Initial residual = 0.0019673, Final residual = 6.75394e-08, No Iterations 8
Time = 0.0615

DILUPBiCG:  Solving for T, Initial residual = 0.00196681, Final residual = 6.64624e-08, No Iterations 8
Time = 0.0616

DILUPBiCG:  Solving for T, Initial residual = 0.00196632, Final residual = 6.67309e-08, No Iterations 8
Time = 0.0617

DILUPBiCG:  Solving for T, Initial residual = 0.00196584, Final residual = 6.67397e-08, No Iterations 8
Time = 0.0618

DILUPBiCG:  Solving for T, Initial residual = 0.00196537, Final residual = 6.64806e-08, No Iterations 8
Time = 0.0619

DILUPBiCG:  Solving for T, Initial residual = 0.0019649, Final residual = 6.65502e-08, No Iterations 8
Time = 0.062

DILUPBiCG:  Solving for T, Initial residual = 0.00196443, Final residual = 6.66706e-08, No Iterations 8
Time = 0.0621

DILUPBiCG:  Solving for T, Initial residual = 0.00196396, Final residual = 6.68379e-08, No Iterations 8
Time = 0.0622

DILUPBiCG:  Solving for T, Initial residual = 0.0019635, Final residual = 6.69109e-08, No Iterations 8
Time = 0.0623

DILUPBiCG:  Solving for T, Initial residual = 0.00196305, Final residual = 6.70399e-08, No Iterations 8
Time = 0.0624

DILUPBiCG:  Solving for T, Initial residual = 0.00196259, Final residual = 6.71942e-08, No Iterations 8
Time = 0.0625

DILUPBiCG:  Solving for T, Initial residual = 0.00196215, Final residual = 6.73311e-08, No Iterations 8
Time = 0.0626

DILUPBiCG:  Solving for T, Initial residual = 0.0019617, Final residual = 6.7423e-08, No Iterations 8
Time = 0.0627

DILUPBiCG:  Solving for T, Initial residual = 0.00196126, Final residual = 6.75296e-08, No Iterations 8
Time = 0.0628

DILUPBiCG:  Solving for T, Initial residual = 0.00196082, Final residual = 6.76285e-08, No Iterations 8
Time = 0.0629

DILUPBiCG:  Solving for T, Initial residual = 0.00196038, Final residual = 6.77139e-08, No Iterations 8
Time = 0.063

DILUPBiCG:  Solving for T, Initial residual = 0.00195995, Final residual = 6.78605e-08, No Iterations 8
Time = 0.0631

DILUPBiCG:  Solving for T, Initial residual = 0.00195952, Final residual = 6.79623e-08, No Iterations 8
Time = 0.0632

DILUPBiCG:  Solving for T, Initial residual = 0.0019591, Final residual = 6.80639e-08, No Iterations 8
Time = 0.0633

DILUPBiCG:  Solving for T, Initial residual = 0.00195867, Final residual = 6.81393e-08, No Iterations 8
Time = 0.0634

DILUPBiCG:  Solving for T, Initial residual = 0.00195825, Final residual = 6.82471e-08, No Iterations 8
Time = 0.0635

DILUPBiCG:  Solving for T, Initial residual = 0.00195784, Final residual = 6.84204e-08, No Iterations 8
Time = 0.0636

DILUPBiCG:  Solving for T, Initial residual = 0.00195743, Final residual = 6.85121e-08, No Iterations 8
Time = 0.0637

DILUPBiCG:  Solving for T, Initial residual = 0.00195702, Final residual = 6.86241e-08, No Iterations 8
Time = 0.0638

DILUPBiCG:  Solving for T, Initial residual = 0.00195661, Final residual = 6.88042e-08, No Iterations 8
Time = 0.0639

DILUPBiCG:  Solving for T, Initial residual = 0.00195621, Final residual = 6.89608e-08, No Iterations 8
Time = 0.064

DILUPBiCG:  Solving for T, Initial residual = 0.00195581, Final residual = 6.90767e-08, No Iterations 8
Time = 0.0641

DILUPBiCG:  Solving for T, Initial residual = 0.00195541, Final residual = 6.92187e-08, No Iterations 8
Time = 0.0642

DILUPBiCG:  Solving for T, Initial residual = 0.00195502, Final residual = 6.93149e-08, No Iterations 8
Time = 0.0643

DILUPBiCG:  Solving for T, Initial residual = 0.00195462, Final residual = 6.94835e-08, No Iterations 8
Time = 0.0644

DILUPBiCG:  Solving for T, Initial residual = 0.00195424, Final residual = 6.95783e-08, No Iterations 8
Time = 0.0645

DILUPBiCG:  Solving for T, Initial residual = 0.00195385, Final residual = 6.9671e-08, No Iterations 8
Time = 0.0646

DILUPBiCG:  Solving for T, Initial residual = 0.00195347, Final residual = 6.97848e-08, No Iterations 8
Time = 0.0647

DILUPBiCG:  Solving for T, Initial residual = 0.00195309, Final residual = 6.98847e-08, No Iterations 8
Time = 0.0648

DILUPBiCG:  Solving for T, Initial residual = 0.00195271, Final residual = 6.89153e-08, No Iterations 8
Time = 0.0649

DILUPBiCG:  Solving for T, Initial residual = 0.00195234, Final residual = 6.89785e-08, No Iterations 8
Time = 0.065

DILUPBiCG:  Solving for T, Initial residual = 0.00195197, Final residual = 6.90746e-08, No Iterations 8
Time = 0.0651

DILUPBiCG:  Solving for T, Initial residual = 0.0019516, Final residual = 6.91572e-08, No Iterations 8
Time = 0.0652

DILUPBiCG:  Solving for T, Initial residual = 0.00195123, Final residual = 6.92687e-08, No Iterations 8
Time = 0.0653

DILUPBiCG:  Solving for T, Initial residual = 0.00195087, Final residual = 6.93831e-08, No Iterations 8
Time = 0.0654

DILUPBiCG:  Solving for T, Initial residual = 0.00195051, Final residual = 6.9494e-08, No Iterations 8
Time = 0.0655

DILUPBiCG:  Solving for T, Initial residual = 0.00195015, Final residual = 6.95926e-08, No Iterations 8
Time = 0.0656

DILUPBiCG:  Solving for T, Initial residual = 0.00194979, Final residual = 6.96781e-08, No Iterations 8
Time = 0.0657

DILUPBiCG:  Solving for T, Initial residual = 0.00194944, Final residual = 6.97754e-08, No Iterations 8
Time = 0.0658

DILUPBiCG:  Solving for T, Initial residual = 0.00194909, Final residual = 7.01022e-08, No Iterations 8
Time = 0.0659

DILUPBiCG:  Solving for T, Initial residual = 0.00194874, Final residual = 7.09322e-08, No Iterations 8
Time = 0.066

DILUPBiCG:  Solving for T, Initial residual = 0.00194839, Final residual = 7.13137e-08, No Iterations 8
Time = 0.0661

DILUPBiCG:  Solving for T, Initial residual = 0.00194805, Final residual = 7.15932e-08, No Iterations 8
Time = 0.0662

DILUPBiCG:  Solving for T, Initial residual = 0.00194771, Final residual = 7.18783e-08, No Iterations 8
Time = 0.0663

[...]
Time = 0.0833

DILUPBiCG:  Solving for T, Initial residual = 0.00191194, Final residual = 4.8116e-07, No Iterations 7
Time = 0.0834

DILUPBiCG:  Solving for T, Initial residual = 0.00191182, Final residual = 4.76621e-07, No Iterations 7
Time = 0.0835

DILUPBiCG:  Solving for T, Initial residual = 0.0019117, Final residual = 4.72017e-07, No Iterations 7
Time = 0.0836

DILUPBiCG:  Solving for T, Initial residual = 0.00191158, Final residual = 4.67305e-07, No Iterations 7
Time = 0.0837

DILUPBiCG:  Solving for T, Initial residual = 0.00191146, Final residual = 4.62914e-07, No Iterations 7
Time = 0.0838

DILUPBiCG:  Solving for T, Initial residual = 0.00191134, Final residual = 4.58484e-07, No Iterations 7
Time = 0.0839

DILUPBiCG:  Solving for T, Initial residual = 0.00191123, Final residual = 4.54106e-07, No Iterations 7
Time = 0.084

DILUPBiCG:  Solving for T, Initial residual = 0.00191111, Final residual = 4.50317e-07, No Iterations 7
Time = 0.0841

DILUPBiCG:  Solving for T, Initial residual = 0.00191099, Final residual = 4.45828e-07, No Iterations 7
Time = 0.0842

DILUPBiCG:  Solving for T, Initial residual = 0.00191088, Final residual = 4.41472e-07, No Iterations 7
Time = 0.0843

DILUPBiCG:  Solving for T, Initial residual = 0.00191076, Final residual = 4.37363e-07, No Iterations 7
Time = 0.0844

DILUPBiCG:  Solving for T, Initial residual = 0.00191065, Final residual = 4.33198e-07, No Iterations 7
Time = 0.0845

DILUPBiCG:  Solving for T, Initial residual = 0.00191054, Final residual = 4.29196e-07, No Iterations 7
Time = 0.0846

DILUPBiCG:  Solving for T, Initial residual = 0.00191042, Final residual = 4.2522e-07, No Iterations 7
Time = 0.0847

DILUPBiCG:  Solving for T, Initial residual = 0.00191031, Final residual = 4.21246e-07, No Iterations 7
Time = 0.0848

DILUPBiCG:  Solving for T, Initial residual = 0.0019102, Final residual = 4.17178e-07, No Iterations 7
Time = 0.0849

DILUPBiCG:  Solving for T, Initial residual = 0.00191009, Final residual = 4.13369e-07, No Iterations 7
Time = 0.085

DILUPBiCG:  Solving for T, Initial residual = 0.00190998, Final residual = 4.09497e-07, No Iterations 7
Time = 0.0851

DILUPBiCG:  Solving for T, Initial residual = 0.00190987, Final residual = 4.05723e-07, No Iterations 7
Time = 0.0852

DILUPBiCG:  Solving for T, Initial residual = 0.00190976, Final residual = 4.02043e-07, No Iterations 7
Time = 0.0853

DILUPBiCG:  Solving for T, Initial residual = 0.00190965, Final residual = 3.983e-07, No Iterations 7
Time = 0.0854

DILUPBiCG:  Solving for T, Initial residual = 0.00190954, Final residual = 3.94627e-07, No Iterations 7
Time = 0.0855

DILUPBiCG:  Solving for T, Initial residual = 0.00190944, Final residual = 3.91039e-07, No Iterations 7
Time = 0.0856

DILUPBiCG:  Solving for T, Initial residual = 0.00190933, Final residual = 3.87513e-07, No Iterations 7
Time = 0.0857

DILUPBiCG:  Solving for T, Initial residual = 0.00190922, Final residual = 3.84018e-07, No Iterations 7
Time = 0.0858

DILUPBiCG:  Solving for T, Initial residual = 0.00190912, Final residual = 3.80526e-07, No Iterations 7
Time = 0.0859

DILUPBiCG:  Solving for T, Initial residual = 0.00190901, Final residual = 3.77079e-07, No Iterations 7
Time = 0.086

DILUPBiCG:  Solving for T, Initial residual = 0.00190891, Final residual = 3.73468e-07, No Iterations 7
Time = 0.0861

DILUPBiCG:  Solving for T, Initial residual = 0.00190881, Final residual = 3.70047e-07, No Iterations 7
Time = 0.0862

DILUPBiCG:  Solving for T, Initial residual = 0.0019087, Final residual = 3.66625e-07, No Iterations 7
Time = 0.0863

DILUPBiCG:  Solving for T, Initial residual = 0.0019086, Final residual = 3.6317e-07, No Iterations 7
Time = 0.0864

DILUPBiCG:  Solving for T, Initial residual = 0.0019085, Final residual = 3.59854e-07, No Iterations 7
Time = 0.0865

DILUPBiCG:  Solving for T, Initial residual = 0.0019084, Final residual = 3.56278e-07, No Iterations 7
Time = 0.0866

DILUPBiCG:  Solving for T, Initial residual = 0.0019083, Final residual = 3.53086e-07, No Iterations 7
Time = 0.0867

DILUPBiCG:  Solving for T, Initial residual = 0.0019082, Final residual = 3.49875e-07, No Iterations 7
Time = 0.0868

DILUPBiCG:  Solving for T, Initial residual = 0.0019081, Final residual = 3.46644e-07, No Iterations 7
Time = 0.0869

DILUPBiCG:  Solving for T, Initial residual = 0.001908, Final residual = 3.43525e-07, No Iterations 7
Time = 0.087

DILUPBiCG:  Solving for T, Initial residual = 0.0019079, Final residual = 3.40549e-07, No Iterations 7
Time = 0.0871

DILUPBiCG:  Solving for T, Initial residual = 0.00190781, Final residual = 3.37991e-07, No Iterations 7
Time = 0.0872

DILUPBiCG:  Solving for T, Initial residual = 0.00190771, Final residual = 3.34887e-07, No Iterations 7
Time = 0.0873

DILUPBiCG:  Solving for T, Initial residual = 0.00190761, Final residual = 3.31655e-07, No Iterations 7
Time = 0.0874

DILUPBiCG:  Solving for T, Initial residual = 0.00190752, Final residual = 3.28297e-07, No Iterations 7
Time = 0.0875

DILUPBiCG:  Solving for T, Initial residual = 0.00190742, Final residual = 3.25083e-07, No Iterations 7
Time = 0.0876

DILUPBiCG:  Solving for T, Initial residual = 0.00190733, Final residual = 3.21938e-07, No Iterations 7
Time = 0.0877

DILUPBiCG:  Solving for T, Initial residual = 0.00190724, Final residual = 3.18943e-07, No Iterations 7
Time = 0.0878

DILUPBiCG:  Solving for T, Initial residual = 0.00190714, Final residual = 3.15975e-07, No Iterations 7
Time = 0.0879

DILUPBiCG:  Solving for T, Initial residual = 0.00190705, Final residual = 3.12786e-07, No Iterations 7
Time = 0.088

DILUPBiCG:  Solving for T, Initial residual = 0.00190696, Final residual = 3.09895e-07, No Iterations 7
Time = 0.0881

DILUPBiCG:  Solving for T, Initial residual = 0.00190687, Final residual = 3.06892e-07, No Iterations 7
Time = 0.0882

DILUPBiCG:  Solving for T, Initial residual = 0.00190678, Final residual = 3.04084e-07, No Iterations 7
Time = 0.0883

DILUPBiCG:  Solving for T, Initial residual = 0.00190669, Final residual = 3.01259e-07, No Iterations 7
Time = 0.0884

DILUPBiCG:  Solving for T, Initial residual = 0.0019066, Final residual = 2.98485e-07, No Iterations 7
Time = 0.0885

DILUPBiCG:  Solving for T, Initial residual = 0.00190651, Final residual = 2.95727e-07, No Iterations 7
Time = 0.0886

DILUPBiCG:  Solving for T, Initial residual = 0.00190642, Final residual = 2.92979e-07, No Iterations 7
Time = 0.0887

DILUPBiCG:  Solving for T, Initial residual = 0.00190633, Final residual = 2.90277e-07, No Iterations 7
Time = 0.0888

DILUPBiCG:  Solving for T, Initial residual = 0.00190624, Final residual = 2.87578e-07, No Iterations 7
Time = 0.0889

DILUPBiCG:  Solving for T, Initial residual = 0.00190615, Final residual = 2.84914e-07, No Iterations 7
Time = 0.089

DILUPBiCG:  Solving for T, Initial residual = 0.00190607, Final residual = 2.82259e-07, No Iterations 7
Time = 0.0891

DILUPBiCG:  Solving for T, Initial residual = 0.00190598, Final residual = 2.79628e-07, No Iterations 7
Time = 0.0892

DILUPBiCG:  Solving for T, Initial residual = 0.0019059, Final residual = 2.76991e-07, No Iterations 7
Time = 0.0893

DILUPBiCG:  Solving for T, Initial residual = 0.00190581, Final residual = 2.77815e-07, No Iterations 7
Time = 0.0894

DILUPBiCG:  Solving for T, Initial residual = 0.00190573, Final residual = 2.75716e-07, No Iterations 7
Time = 0.0895

DILUPBiCG:  Solving for T, Initial residual = 0.00190564, Final residual = 2.73148e-07, No Iterations 7
Time = 0.0896

DILUPBiCG:  Solving for T, Initial residual = 0.00190556, Final residual = 2.7059e-07, No Iterations 7
Time = 0.0897

DILUPBiCG:  Solving for T, Initial residual = 0.00190548, Final residual = 2.68025e-07, No Iterations 7
Time = 0.0898

DILUPBiCG:  Solving for T, Initial residual = 0.00190539, Final residual = 2.6603e-07, No Iterations 7
Time = 0.0899

DILUPBiCG:  Solving for T, Initial residual = 0.00190531, Final residual = 2.63558e-07, No Iterations 7
Time = 0.09

DILUPBiCG:  Solving for T, Initial residual = 0.00190523, Final residual = 2.61445e-07, No Iterations 7
Time = 0.0901

DILUPBiCG:  Solving for T, Initial residual = 0.00190515, Final residual = 2.58995e-07, No Iterations 7
Time = 0.0902

DILUPBiCG:  Solving for T, Initial residual = 0.00190507, Final residual = 2.56547e-07, No Iterations 7
Time = 0.0903

DILUPBiCG:  Solving for T, Initial residual = 0.00190499, Final residual = 2.544e-07, No Iterations 7
Time = 0.0904

DILUPBiCG:  Solving for T, Initial residual = 0.00190491, Final residual = 2.52023e-07, No Iterations 7
Time = 0.0905

DILUPBiCG:  Solving for T, Initial residual = 0.00190483, Final residual = 2.49653e-07, No Iterations 7
Time = 0.0906

DILUPBiCG:  Solving for T, Initial residual = 0.00190475, Final residual = 2.47308e-07, No Iterations 7
Time = 0.0907

DILUPBiCG:  Solving for T, Initial residual = 0.00190467, Final residual = 2.44997e-07, No Iterations 7
Time = 0.0908

DILUPBiCG:  Solving for T, Initial residual = 0.0019046, Final residual = 2.4262e-07, No Iterations 7
Time = 0.0909

DILUPBiCG:  Solving for T, Initial residual = 0.00190452, Final residual = 2.40343e-07, No Iterations 7
Time = 0.091

DILUPBiCG:  Solving for T, Initial residual = 0.00190444, Final residual = 2.38061e-07, No Iterations 7
Time = 0.0911

DILUPBiCG:  Solving for T, Initial residual = 0.00190437, Final residual = 2.35591e-07, No Iterations 7
Time = 0.0912

DILUPBiCG:  Solving for T, Initial residual = 0.00190429, Final residual = 2.33374e-07, No Iterations 7
Time = 0.0913

DILUPBiCG:  Solving for T, Initial residual = 0.00190421, Final residual = 2.31181e-07, No Iterations 7
Time = 0.0914

DILUPBiCG:  Solving for T, Initial residual = 0.00190414, Final residual = 2.29004e-07, No Iterations 7
Time = 0.0915

DILUPBiCG:  Solving for T, Initial residual = 0.00190406, Final residual = 2.26848e-07, No Iterations 7
Time = 0.0916

DILUPBiCG:  Solving for T, Initial residual = 0.00190399, Final residual = 2.24717e-07, No Iterations 7
Time = 0.0917

DILUPBiCG:  Solving for T, Initial residual = 0.00190392, Final residual = 2.22594e-07, No Iterations 7
Time = 0.0918

DILUPBiCG:  Solving for T, Initial residual = 0.00190384, Final residual = 2.20661e-07, No Iterations 7
Time = 0.0919

DILUPBiCG:  Solving for T, Initial residual = 0.00190377, Final residual = 2.18576e-07, No Iterations 7
Time = 0.092

DILUPBiCG:  Solving for T, Initial residual = 0.0019037, Final residual = 2.16526e-07, No Iterations 7
Time = 0.0921

DILUPBiCG:  Solving for T, Initial residual = 0.00190363, Final residual = 2.14597e-07, No Iterations 7
Time = 0.0922

DILUPBiCG:  Solving for T, Initial residual = 0.00190356, Final residual = 2.12662e-07, No Iterations 7
Time = 0.0923

DILUPBiCG:  Solving for T, Initial residual = 0.00190349, Final residual = 2.10747e-07, No Iterations 7
Time = 0.0924

DILUPBiCG:  Solving for T, Initial residual = 0.00190342, Final residual = 2.08866e-07, No Iterations 7
Time = 0.0925

DILUPBiCG:  Solving for T, Initial residual = 0.00190335, Final residual = 2.07212e-07, No Iterations 7
Time = 0.0926

DILUPBiCG:  Solving for T, Initial residual = 0.00190328, Final residual = 2.05364e-07, No Iterations 7
Time = 0.0927

DILUPBiCG:  Solving for T, Initial residual = 0.00190321, Final residual = 2.03623e-07, No Iterations 7
Time = 0.0928

DILUPBiCG:  Solving for T, Initial residual = 0.00190314, Final residual = 2.01842e-07, No Iterations 7
Time = 0.0929

DILUPBiCG:  Solving for T, Initial residual = 0.00190307, Final residual = 2.00073e-07, No Iterations 7
Time = 0.093

DILUPBiCG:  Solving for T, Initial residual = 0.001903, Final residual = 1.98227e-07, No Iterations 7
Time = 0.0931

DILUPBiCG:  Solving for T, Initial residual = 0.00190294, Final residual = 1.96276e-07, No Iterations 7
Time = 0.0932

DILUPBiCG:  Solving for T, Initial residual = 0.00190287, Final residual = 1.94368e-07, No Iterations 7
Time = 0.0933

DILUPBiCG:  Solving for T, Initial residual = 0.0019028, Final residual = 1.92507e-07, No Iterations 7
Time = 0.0934

DILUPBiCG:  Solving for T, Initial residual = 0.00190274, Final residual = 1.90647e-07, No Iterations 7
Time = 0.0935

DILUPBiCG:  Solving for T, Initial residual = 0.00190267, Final residual = 1.88852e-07, No Iterations 7
Time = 0.0936

DILUPBiCG:  Solving for T, Initial residual = 0.00190261, Final residual = 1.86726e-07, No Iterations 7
Time = 0.0937

DILUPBiCG:  Solving for T, Initial residual = 0.00190254, Final residual = 1.84468e-07, No Iterations 7
Time = 0.0938

DILUPBiCG:  Solving for T, Initial residual = 0.00190248, Final residual = 1.82249e-07, No Iterations 7
Time = 0.0939

DILUPBiCG:  Solving for T, Initial residual = 0.00190241, Final residual = 1.80031e-07, No Iterations 7
Time = 0.094

DILUPBiCG:  Solving for T, Initial residual = 0.00190235, Final residual = 1.77834e-07, No Iterations 7
Time = 0.0941

DILUPBiCG:  Solving for T, Initial residual = 0.00190229, Final residual = 1.75486e-07, No Iterations 7
Time = 0.0942

DILUPBiCG:  Solving for T, Initial residual = 0.00190222, Final residual = 1.73261e-07, No Iterations 7
Time = 0.0943

DILUPBiCG:  Solving for T, Initial residual = 0.00190216, Final residual = 1.71192e-07, No Iterations 7
Time = 0.0944

DILUPBiCG:  Solving for T, Initial residual = 0.0019021, Final residual = 1.69111e-07, No Iterations 7
Time = 0.0945

DILUPBiCG:  Solving for T, Initial residual = 0.00190204, Final residual = 1.67344e-07, No Iterations 7
Time = 0.0946

DILUPBiCG:  Solving for T, Initial residual = 0.00190198, Final residual = 1.65655e-07, No Iterations 7
Time = 0.0947

DILUPBiCG:  Solving for T, Initial residual = 0.00190192, Final residual = 1.63937e-07, No Iterations 7
Time = 0.0948

DILUPBiCG:  Solving for T, Initial residual = 0.00190185, Final residual = 1.62237e-07, No Iterations 7
Time = 0.0949

DILUPBiCG:  Solving for T, Initial residual = 0.00190179, Final residual = 1.60473e-07, No Iterations 7
Time = 0.095

DILUPBiCG:  Solving for T, Initial residual = 0.00190173, Final residual = 1.56515e-07, No Iterations 7
Time = 0.0951

DILUPBiCG:  Solving for T, Initial residual = 0.00190168, Final residual = 1.5488e-07, No Iterations 7
Time = 0.0952

DILUPBiCG:  Solving for T, Initial residual = 0.00190162, Final residual = 1.53523e-07, No Iterations 7
Time = 0.0953

DILUPBiCG:  Solving for T, Initial residual = 0.00190156, Final residual = 1.52027e-07, No Iterations 7
Time = 0.0954

DILUPBiCG:  Solving for T, Initial residual = 0.0019015, Final residual = 1.50631e-07, No Iterations 7
Time = 0.0955

DILUPBiCG:  Solving for T, Initial residual = 0.00190144, Final residual = 1.49318e-07, No Iterations 7
Time = 0.0956

DILUPBiCG:  Solving for T, Initial residual = 0.00190138, Final residual = 1.48139e-07, No Iterations 7
Time = 0.0957

DILUPBiCG:  Solving for T, Initial residual = 0.00190133, Final residual = 1.47091e-07, No Iterations 7
Time = 0.0958

DILUPBiCG:  Solving for T, Initial residual = 0.00190127, Final residual = 1.46156e-07, No Iterations 7
Time = 0.0959

DILUPBiCG:  Solving for T, Initial residual = 0.00190122, Final residual = 1.46522e-07, No Iterations 7
Time = 0.096

DILUPBiCG:  Solving for T, Initial residual = 0.00190116, Final residual = 1.45169e-07, No Iterations 7
Time = 0.0961

DILUPBiCG:  Solving for T, Initial residual = 0.0019011, Final residual = 1.43984e-07, No Iterations 7
Time = 0.0962

DILUPBiCG:  Solving for T, Initial residual = 0.00190105, Final residual = 1.42957e-07, No Iterations 7
Time = 0.0963

DILUPBiCG:  Solving for T, Initial residual = 0.00190099, Final residual = 1.42053e-07, No Iterations 7
Time = 0.0964

DILUPBiCG:  Solving for T, Initial residual = 0.00190094, Final residual = 1.41365e-07, No Iterations 7
Time = 0.0965

DILUPBiCG:  Solving for T, Initial residual = 0.00190088, Final residual = 1.40572e-07, No Iterations 7
Time = 0.0966

DILUPBiCG:  Solving for T, Initial residual = 0.00190083, Final residual = 1.3996e-07, No Iterations 7
Time = 0.0967

DILUPBiCG:  Solving for T, Initial residual = 0.00190078, Final residual = 1.39409e-07, No Iterations 7
Time = 0.0968

DILUPBiCG:  Solving for T, Initial residual = 0.00190072, Final residual = 1.38957e-07, No Iterations 7
Time = 0.0969

DILUPBiCG:  Solving for T, Initial residual = 0.00190067, Final residual = 1.38521e-07, No Iterations 7
Time = 0.097

DILUPBiCG:  Solving for T, Initial residual = 0.00190062, Final residual = 1.38141e-07, No Iterations 7
Time = 0.0971

DILUPBiCG:  Solving for T, Initial residual = 0.00190057, Final residual = 1.37789e-07, No Iterations 7
Time = 0.0972

DILUPBiCG:  Solving for T, Initial residual = 0.00190052, Final residual = 1.37496e-07, No Iterations 7
Time = 0.0973

DILUPBiCG:  Solving for T, Initial residual = 0.00190046, Final residual = 1.37244e-07, No Iterations 7
Time = 0.0974

DILUPBiCG:  Solving for T, Initial residual = 0.00190041, Final residual = 1.36996e-07, No Iterations 7
Time = 0.0975

DILUPBiCG:  Solving for T, Initial residual = 0.00190036, Final residual = 1.36792e-07, No Iterations 7
Time = 0.0976

DILUPBiCG:  Solving for T, Initial residual = 0.00190031, Final residual = 1.3662e-07, No Iterations 7
Time = 0.0977

DILUPBiCG:  Solving for T, Initial residual = 0.00190026, Final residual = 1.36518e-07, No Iterations 7
Time = 0.0978

DILUPBiCG:  Solving for T, Initial residual = 0.00190021, Final residual = 1.36357e-07, No Iterations 7
Time = 0.0979

DILUPBiCG:  Solving for T, Initial residual = 0.00190016, Final residual = 1.3622e-07, No Iterations 7
Time = 0.098

DILUPBiCG:  Solving for T, Initial residual = 0.00190011, Final residual = 1.36108e-07, No Iterations 7
Time = 0.0981

DILUPBiCG:  Solving for T, Initial residual = 0.00190007, Final residual = 1.36001e-07, No Iterations 7
Time = 0.0982

DILUPBiCG:  Solving for T, Initial residual = 0.00190002, Final residual = 1.35974e-07, No Iterations 7
Time = 0.0983

DILUPBiCG:  Solving for T, Initial residual = 0.00189997, Final residual = 1.35905e-07, No Iterations 7
Time = 0.0984

DILUPBiCG:  Solving for T, Initial residual = 0.00189992, Final residual = 1.35862e-07, No Iterations 7
Time = 0.0985

DILUPBiCG:  Solving for T, Initial residual = 0.00189987, Final residual = 1.35853e-07, No Iterations 7
Time = 0.0986

DILUPBiCG:  Solving for T, Initial residual = 0.00189983, Final residual = 1.35851e-07, No Iterations 7
Time = 0.0987

DILUPBiCG:  Solving for T, Initial residual = 0.00189978, Final residual = 1.35912e-07, No Iterations 7
Time = 0.0988

DILUPBiCG:  Solving for T, Initial residual = 0.00189973, Final residual = 1.35923e-07, No Iterations 7
Time = 0.0989

DILUPBiCG:  Solving for T, Initial residual = 0.00189969, Final residual = 1.35953e-07, No Iterations 7
Time = 0.099

DILUPBiCG:  Solving for T, Initial residual = 0.00189964, Final residual = 1.36007e-07, No Iterations 7
Time = 0.0991

DILUPBiCG:  Solving for T, Initial residual = 0.00189959, Final residual = 1.36065e-07, No Iterations 7
Time = 0.0992

DILUPBiCG:  Solving for T, Initial residual = 0.00189955, Final residual = 1.36133e-07, No Iterations 7
Time = 0.0993

DILUPBiCG:  Solving for T, Initial residual = 0.0018995, Final residual = 1.36215e-07, No Iterations 7
Time = 0.0994

DILUPBiCG:  Solving for T, Initial residual = 0.00189946, Final residual = 1.36313e-07, No Iterations 7
Time = 0.0995

DILUPBiCG:  Solving for T, Initial residual = 0.00189941, Final residual = 1.36423e-07, No Iterations 7
Time = 0.0996

DILUPBiCG:  Solving for T, Initial residual = 0.00189937, Final residual = 1.36545e-07, No Iterations 7
Time = 0.0997

DILUPBiCG:  Solving for T, Initial residual = 0.00189933, Final residual = 1.36719e-07, No Iterations 7
Time = 0.0998

DILUPBiCG:  Solving for T, Initial residual = 0.00189928, Final residual = 1.36859e-07, No Iterations 7
Time = 0.0999

DILUPBiCG:  Solving for T, Initial residual = 0.00189924, Final residual = 1.37008e-07, No Iterations 7
Time = 0.1

DILUPBiCG:  Solving for T, Initial residual = 0.0018992, Final residual = 1.37168e-07, No Iterations 7
End

